<?xml version="1.0" encoding="UTF-8"?>

<!-- generated on 2026-03-13 03:08:00.239281 by Eclipse SUMO randomTrips.py v1_26_0+0000-fa7df22d7f1
<configuration>
    <net-file value="outputs/sumo/map.net.xml"/>
    <output-trip-file value="outputs/sumo/trips.xml"/>
    <seed value="4976"/>
    <end value="100.0"/>
</configuration>
-->

<!-- generated on 2026-03-13T03:07:59.977497+01:00 by Eclipse SUMO duarouter 1.26.0
<duarouterConfiguration xmlns:xsi="http://www.w3.org/2001/XMLSchema-instance" xsi:noNamespaceSchemaLocation="http://sumo.dlr.de/xsd/duarouterConfiguration.xsd">

    <input>
        <net-file value="outputs/sumo/map.net.xml"/>
        <route-files value="outputs/sumo/trips.xml"/>
    </input>

    <output>
        <output-file value="routes.rou.xml"/>
        <alternatives-output value="NUL"/>
    </output>

    <time>
        <begin value="0"/>
        <end value="100.0"/>
    </time>

    <report>
        <no-warnings value="true"/>
        <ignore-errors value="true"/>
        <no-step-log value="true"/>
    </report>

</duarouterConfiguration>
-->

<routes xmlns:xsi="http://www.w3.org/2001/XMLSchema-instance" xsi:noNamespaceSchemaLocation="http://sumo.dlr.de/xsd/routes_file.xsd">
    <vehicle id="0" depart="0.00">
        <route edges="675701522#8 71418062#0 -71798329#3 -71798329#2 -71798329#1 71798333#3 675701522#6 1209053740#0 71802833#2 71802833#3 71802833#4 71784192#5 -71786138#10 -71786138#9 -450103155 -155810691#3"/>
    </vehicle>
    <vehicle id="1" depart="1.00">
        <route edges="154243775 -71809595#17 -71809595#16 -71809595#15 -71809595#14 -71809595#13 -71809595#12 -71809595#11 -71809595#10 -71809595#9 -71809595#8 -71809595#7 -71809595#6 -71809595#5 -71809595#4 -71809595#3 -71809595#2 71802817#3 -71809603#15 -71809603#14 -71809603#13 -71809603#12 -71809603#11 -71809603#10 -71809603#9 -71809603#8 -71809603#7 -71809603#6 -71809603#5 -71809603#4 71812149#0 71812149#1 -155810721#1"/>
    </vehicle>
    <vehicle id="2" depart="2.00">
        <route edges="127076361#2 450379087#1 450379087#2 450379087#3 450379088 422864931#1 127073223#1 127073223#2 127073223#3 127073223#4 127073223#5 127073223#6 71802809#11 -71808846#2 -71808846#1 -71808846#0 -635015849 71808847"/>
    </vehicle>
    <vehicle id="3" depart="3.00">
        <route edges="-154532733#2 385875353#0 -154248204#12 -154248204#11 -154248204#10 -154248204#9 -154248204#8 -154248204#7 -385875346#2 -385875346#1 -385875346#0 -385875301#3 -385875301#2 -385875301#1 -385875301#0 -32906407#15 -32906407#14 -32906407#13 -32906407#12 -32906407#11 -32906407#10 -32906407#9 -32906407#8 -32906407#7 -385887979#2 -385887979#1 -385887979#0 -385887992#3 -385887992#2 154248154#1"/>
    </vehicle>
    <vehicle id="4" depart="4.00">
        <route edges="32906407#37 -32906407#37 -32906407#36 -32906407#35 -32906407#34 -32906407#33 -32906407#32 -32906407#31 -32906407#30 -32906407#29 -32906407#28 -32906407#27 -32906407#26 -32906407#25 -154248107#4 -154248107#3 -385887990#4 -385887990#3 -385887990#2 -385887990#1 -385887990#0 696817312#0 696817312#1 696817312#2 385833326#0 385833326#1 385833326#2 385833326#3 385833326#4 385833326#5 153793546#3 153793546#4 153793546#5 140098862 202194429#0 202194429#1 202194429#2 422860509 427890465 714605683#7 714605683#8 714605683#0 714605683#1 714605683#2 714605683#3 727288163#0 727288163#1 -140226525#24 -140226525#23 733127456 154243752#0 154243752#1 154243752#2 154243752#3 154243752#4 -422876193#1 -422876193#0 154243812#0 154243812#1 154243812#2 154243812#3 428906231#2 428906231#3 428906231#4 154243723#1 154243723#2"/>
    </vehicle>
    <vehicle id="5" depart="5.00">
        <route edges="-233200749#1 -1319809175#1 -1319809175#0 71802819#1 71802819#2 -71812040#23 -71812040#22 -71812040#21 -71812040#20 -71812040#19 -71812040#18 -71812040#17 -71812040#16 71802794#0 71802794#1 71802815#4 71802815#5 71802815#6 71802815#7 71802815#8 71802815#9 71802815#10 71802815#11 71802815#12 428817026#6 428817026#7 428817026#0 428817026#1 71802801#0 71802801#1 71802801#2 1322430051 -71802830#7 -71802830#6 -71802830#5"/>
    </vehicle>
    <vehicle id="6" depart="6.00">
        <route edges="154248156#9 -154248155#4 -154248155#3 -154248155#2 -169411926#8 -169411926#7 -169411926#6 -169411926#5 -169411926#4 -169411926#3 -169411926#2 -169411926#1 385833326#4 385833326#5 153793546#3 153793546#4 153793546#5 140098862 202194429#0 202194429#1 202194429#2 422860509 427890465 714605683#7 714605683#8 714605683#0 714605683#1 714605683#2 714605683#3 727288163#0 727288163#1 -140226525#24 -140226525#23 -140226525#22 -140226525#21 -140226525#20 -140226525#19 -140226525#18 -140226525#17 -140226525#16 -140226525#15 -140226525#14 -140226525#13 -140226525#12 -140226525#11 -140226525#10 -140226525#9 -140226525#8 -140226525#7 -140226525#6 -140226525#5 -140226525#4 -140226525#3 -140226525#2 -140226525#1 -140226525#0 428817026#1 428817026#2 428817026#3 428817026#4 71802817#0 71802817#1 71802817#2 71802817#3 -71809603#15 -71809603#14 -71809603#13 -71809603#12 -71809603#11 -71809603#10 -71809603#9"/>
    </vehicle>
    <vehicle id="7" depart="7.00">
        <route edges="71808837#0 71808837#1 71808837#2 71808837#3 71802809#10 71802809#11 71802809#12 71802809#13 71802809#14 71802809#15 428817026#3 428817026#4 428817026#5 428817026#6 428817026#7 428817026#0 140226525#0 140226525#1 140226525#2 140226525#3 140226525#4 140226525#5 140226525#6 140226525#7 140226525#8 140226525#9 140226525#10 140226525#11 140226525#12 140226525#13 140226525#14 140226525#15 140226525#16 140226525#17 140226525#18 140226525#19 140226525#20 140226525#21 140226525#22 140226525#23 140226525#24 740723071#0 740723071#1 714605683#5 714605683#6 714605683#7 714605683#8 714605683#0 714605683#1 714605683#2 714605683#3 727288163#0"/>
    </vehicle>
    <vehicle id="8" depart="8.00">
        <route edges="-785748716#9 1315730170 785748713#3 785748713#4 785748713#5 785748713#6 30314463#6 30314463#7 30314463#8 1226965435#1 153641912#0 153641912#1 153641912#2 153641912#3 153641912#4 153641912#5 153641912#6 153641912#7 153641912#8 153641912#9 153641912#10 153641912#11 153641912#12 153641912#13 153641912#14 153641912#15 153641912#16 153641912#17 153641912#18 153641912#19 153641912#20 153641912#21 153641912#22 153641912#23 153641912#24 153641912#25 153641912#26 153641912#27 153641912#28 153641912#29 1233513822#0 1233513822#1 1233513822#2 1233513822#3 1233513822#4 1233513822#5 1233513822#6 1233513822#7 154248106#4 154248106#5 -696622755"/>
    </vehicle>
    <vehicle id="9" depart="9.00">
        <route edges="-385887983#2 -385887983#1 -385887976#1 -385887976#0 385833331#4 385833331#5 385833331#6 -385833333#0 -154248127#12 153793571#9 153793571#10 -153641912#21 -153641912#20 -153641912#19 -153641912#18 -153641912#17 -153641912#16 -153641912#15 -153641912#14 -153641912#13 -153641912#12 -153641912#11 -153641912#10 -153641912#9 -153641912#8 -153641912#7 -153641912#6 -153641912#5 -153641912#4 -153641912#3 -153641912#2 -153641912#1 -153641912#0 1227311336#0 1227311336#1 727288160#3 727288160#4 727288160#5 727288160#6 727288160#7 727288160#8 727288160#9 727288160#10 727288160#11"/>
    </vehicle>
    <vehicle id="10" depart="10.00">
        <route edges="154248185#1 -154248149#1 -154248149#0 154248127#7 154248127#8 154248127#9 154248127#10 154248127#11 154248127#12 385833326#2 385833326#3 385833326#4 385833326#5 153793546#3 153793546#4 153793546#5 140098862 202194429#0 202194429#1 202194429#2 422860509 427890465 714605683#7 714605683#8 714605683#0 714605683#1 714605683#2 714605683#3 727288163#0 727288163#1 -140226525#24 -140226525#23 -140226525#22 -140226525#21 -140226525#20 -140226525#19 -140226525#18 -140226525#17 -140226525#16 -140226525#15 -140226525#14 -140226525#13 -140226525#12 -140226525#11 -140226525#10 -140226525#9 -140226525#8 -140226525#7 -140226525#6 -140226525#5 -140226525#4 -140226525#3 -140226525#2 -140226525#1 -140226525#0 428817026#1 428817026#2 428817026#3 428817026#4 71812151#0 71812151#1 71812167"/>
    </vehicle>
    <vehicle id="11" depart="11.00">
        <route edges="32906407#5 32906407#6 32906407#7 32906407#8 32906407#9 32906407#10 153641998 -153641912#31 -153641912#30 -153641912#29 -153641912#28 -153641912#27 -153641912#26 -153641912#25 -153641912#24 -153641912#23 385833326#0 385833326#1 385833326#2 385833326#3 385833326#4 385833326#5 153793546#3 153793546#4 153793546#5 140098862 202194429#0 202194429#1 202194429#2 422860509 427890465 714605683#7 714605683#8 714605683#0 714605683#1 714605683#2 714605683#3 727288163#0 727288163#1 -140226525#24 -140226525#23 -140226525#22 -140226525#21 -140226525#20 -140226525#19 -140226525#18 -140226525#17 -140226525#16 -140226525#15 -140226525#14 -140226525#13 -140226525#12 -140226525#11 -140226525#10 -140226525#9 -140226525#8 -140226525#7 -140226525#6 -140226525#5 -140226525#4 127073223#0 -422864931#1 -450379088 -450379087#3 -450379087#2 -450379090 450379084#2"/>
    </vehicle>
    <vehicle id="12" depart="12.00">
        <route edges="127073090#4 127073090#5 1322430051 71802809#7 71802809#8 71802809#9 71802809#10 71802809#11 71802809#12 71802809#13 71802809#14 71802809#15 428817026#3 428817026#4 428817026#5 428817026#6 428817026#7 428817026#0 140226525#0 140226525#1 140226525#2 140226525#3 140226525#4 140226525#5 140226525#6 140226525#7 140226525#8 140226525#9 140226525#10 140226525#11 140226525#12 140226525#13 140226525#14 154243773#0 154243773#1 154243791#0 154243791#1 154243791#2 154243791#3 -154243818 -154243763#3"/>
    </vehicle>
    <vehicle id="13" depart="13.00">
        <route edges="-154243723#2 -154243723#1 -428906231#4 -428906231#3 -428906231#2 -154243812#3 -154243812#2 -154243812#1 -154243812#0 422876193#0 422876193#1 -154243752#4 -154243752#3 -154243752#2 -154243752#1 -154243752#0 733127457 140226525#24 740723071#0 427957750 714605685#1 422860506#1 153793538#0 153793538#1 153793538#2 153793558 153793539#0 140226505 727298390#0 727298390#1 727298390#2 727298390#3 727298390#4 727298390#5 727298390#6 727298390#7 727298390#8 727298390#9 154248166 -154248136#6 -154248136#5 -154248136#4 -154248136#3 154248103#0 154248103#1 154248103#2 154248103#3 154248103#4 154248103#5 154248103#6 154248103#7 -696830482#8 -696830482#7 -696830482#6 -696830482#5 -696830482#4 -696830482#3 154532734#2"/>
    </vehicle>
    <vehicle id="14" depart="14.00">
        <route edges="-1229785757#1 1320421557 -153793521#3 -153793521#2 -153793521#1 -153793521#0 -233200745#0 -1268557539 -1171459151 71809595#13 153793568#0 153793568#1 -154243812#7 -154243812#6 -154243812#5 -154243812#4 -154243812#3 -154243812#2 -154243812#1 -154243812#0 422876193#0 422876193#1"/>
    </vehicle>
    <vehicle id="15" depart="15.00">
        <route edges="-714623942#0 714623934#1 -154248190#1 -154248190#0 -153641912#4 -153641912#3 -153641912#2 -153641912#1 -153641912#0 1227311336#0 30314463#10 30314463#11 385433952#3 385433952#4 385433959 385433950 385433955 385433951#1 385433951#2 385433956 385433949#0 385433949#1 654841656#0 654841656#1 -418296100#3 -418296102#1 -154642676#2 -154642676#1 -418296099#0 -154642670#3"/>
    </vehicle>
    <vehicle id="16" depart="16.00">
        <route edges="385875379#1 385875423#2 -696616686#0 -385875296#5 1233513827#0 1233513827#1 154248138#1 154248138#2 154248138#3 154248138#4 154248138#5 154248138#6 154248138#7 154248138#8 -154248117#1 -154248117#0 385833326#3 385833326#4 385833326#5 153793546#3 153793546#4 153793546#5 140098862 202194429#0 202194429#1 202194429#2 422860509 427890465 714605683#7 714605683#8 714605683#0 714605683#1 714605683#2 714605683#3 727288163#0 727288163#1 -140226525#24 -140226525#23 733127456 154243752#0 154243752#1 154243752#2 154243752#3 154243752#4 -422876193#1 -422876193#0 154243812#0 154243812#1"/>
    </vehicle>
    <vehicle id="17" depart="17.00">
        <route edges="-784699452#0 -784103773#5 -784103773#4 -784103773#3 -784103773#2 379387054#1 379387054#2 379387054#3 379387054#4 379387054#5 71759196#4 71759196#5 71759196#6 71759196#7 71759196#0 71759198#0 71759198#1 71759198#2 -1040183133 -385433949#4 -385433949#3 -385433949#2 -385433949#1 -385433949#0 385433957 385433951#4 385433951#5 385433951#6 385433953 -385433950 727288161 385433952#6 385433952#0 385433952#1 385433952#2 385433952#3 140254568 153793546#1 153793571#0 153793571#1 153793571#2 153793571#3 153793571#4 153793571#5 153793571#6 153793571#7 153793571#8 153793571#9 154248185#0"/>
    </vehicle>
    <vehicle id="18" depart="18.00">
        <route edges="71417986#2 -71418064#0 71418062#3 71798324#0 71798324#1 71798324#2 71798324#3 71798333#2 71798333#3 675701522#6 1209053740#0 1209053740#1 1209053740#2 71798312#6 71798312#7 71798322#2"/>
    </vehicle>
    <vehicle id="19" depart="19.00">
        <route edges="154243749#8 154243749#9 154243749#10 154243749#11 1031136593#3 1031136593#4 1031136593#5 1031136593#6 1031136593#7 1031136598#0 1031136599#0 1031136599#1 -140226525#5 -140226525#4 -140226525#3 -140226525#2 -140226525#1 -140226525#0 428817026#1 428817026#2 428817026#3 71786138#0 -71808854#4 71808929#2 71808929#3 71808929#4 -71802785#11 -71802785#10 -71802785#9 -71802785#8 -71802785#7 -71802785#6 -71802785#5 -71802838#5 -71808968#1"/>
    </vehicle>
    <vehicle id="20" depart="20.00">
        <route edges="-154243796#2 -154243796#1 619139189#3 619139189#4 619139189#5 619139189#6 140226525#23 140226525#24 740723071#0 427957750 714605685#1 422860506#1 153793538#0 153793538#1 153793538#2 153793558 153793539#0 140226505 727298390#0 727298390#1 727298390#2 727298390#3 727298390#4 727298393 32906407#0 32906407#1 32906407#2 32906407#3 32906407#4 32906407#5 32906407#6 32906407#7 32906407#8 32906407#9 32906407#10 153641998 -153641912#31 -153641912#30 -153641912#29 -153641912#28 -153641912#27 -153641912#26 -153641912#25 -153641912#24 -153641912#23 -153641912#22 -153641912#21 -153641912#20 -153641912#19 -153641912#18 -153641912#17 -153641912#16 -153641912#15 -153641912#14 -153641912#13 -153641912#12 -154248142#10 -154248142#9 -154248142#8 -154248142#7 -154248164#3 -154248164#2 -154248164#1 154248121#0"/>
    </vehicle>
    <vehicle id="21" depart="21.00">
        <route edges="543597718#1 -543597718#1 -154243748#5 -154243748#4 140226525#1 140226525#2 140226525#3 140226525#4 140226525#5 140226525#6 140226525#7 140226525#8 140226525#9 140226525#10 140226525#11 140226525#12 140226525#13 140226525#14 140226525#15 140226525#16 140226525#17 140226525#18 -153793568#7 154243697#0 154243697#1 154243697#2 154243697#3 154243761#0"/>
    </vehicle>
    <vehicle id="22" depart="22.00">
        <route edges="-379387053#0 -153986413#1 -153986413#0 -379387050#1 -379387050#0 -71786138#6 -71786138#5 -71786138#4 -71786138#3 -71786138#2 -71786138#1 -71786138#0 428817026#4 428817026#5 428817026#6 428817026#7 428817026#0 140226525#0 140226525#1 140226525#2 140226525#3 140226525#4 140226525#5 140226525#6 140226525#7 140226525#8 140226525#9 140226525#10 140226525#11 140226525#12 140226525#13 140226525#14 140226525#15 140226525#16 140226525#17 140226525#18 140226525#19 140226525#20 140226525#21 140226525#22 140226525#23 140226525#24 740723071#0 427957750 714605685#1 422860506#1 153793538#0 153793538#1 153793538#2 153793558 153793539#0 140226505 727298390#0 727298390#1 727298390#2 727298390#3 727298390#4 727298393 32906407#0 32906407#1 32906407#2 32906407#3 32906407#4 32906407#5 32906407#6 32906407#7 32906407#8 32906407#9 32906407#10 32906407#11 32906407#12 32906407#13 32906407#14 32906407#15 32906407#16 32906407#17 32906407#18 32906407#19 32906407#20 32906407#21 32906407#22 32906407#23 32906407#24 32906407#25 32906407#26 32906407#27 32906407#28 32906407#29 32906407#30 32906407#31 32906407#32 32906407#33 154532738#0 154532738#1 696819547#0 696819547#1 -154248198#6 -154248198#5 -154532719#4 -154532719#3 -155074062"/>
    </vehicle>
    <vehicle id="23" depart="23.00">
        <route edges="71812030#0 -316821091 -71812034#0 71798312#4 71798312#5 71798312#6 151329886#0 151329886#1 151329886#2 151329886#3 151329886#4 151329886#5 151329886#6 151329886#7 -151329886#7"/>
    </vehicle>
    <vehicle id="24" depart="24.00">
        <route edges="-154248171#0 -154248130#1 696817314#0 696817314#1 154248107#1 154248107#2 154248107#3 -1233441432#2 -1233441432#1"/>
    </vehicle>
    <vehicle id="25" depart="25.00">
        <route edges="-154532718#6 -154532718#5 -154532718#4 -154532718#3 -154532718#2 -154532718#1 -154532728#2 -154532728#1 -154532728#0 -1233440742#1 -1233440742#0 32906407#23 32906407#24 -154248107#4 -154248107#3 -385887990#4 -385887990#3 -385887990#2 -385887990#1 -385887990#0 696817312#0 696817312#1 696817312#2 385833326#0 385833326#1 385833326#2 385833326#3 385833326#4 385833326#5 153793546#3 153793546#4 153793546#5 140098862 202194429#0 202194429#1 202194429#2 422860509 427890465 714605683#7 714605683#8 714605683#0 714605683#1 714605683#2 714605683#3 727288163#0 727288163#1 -140226525#24 -140226525#23 733127456 154243752#0 154243752#1 -154243752#1"/>
    </vehicle>
    <vehicle id="26" depart="26.00">
        <route edges="379387059#1 71812051#0 71812051#1 -151329879#2 -151329879#1 -151329879#0 -379387043 -379387050#1 -379387050#0 -71786138#6 -71786138#5 -71786138#4 -71786138#3 -71786138#2 -71786138#1 -71786138#0 428817026#4 428817026#5 428817026#6 428817026#7 428817026#0 140226525#0 -154243748#3 436728859#0 -436728858#1 -436728858#0"/>
    </vehicle>
    <vehicle id="27" depart="27.00">
        <route edges="-1164369700#1 1164369699 784963025#4 784963024#0 379387054#5 71759196#4 71759196#5 71759196#6 71759196#7 71759196#0 71759198#0 71759198#1 71759198#2 -1040183133 -385433949#4 -385433949#3 -385433949#2 -385433949#1 -385433949#0 385433957 385433951#4 385433951#5 385433951#6 385433953 -385433950 727288161 385433952#6 385433952#0 385433952#1 385433952#2 385433952#3 140254568 153793546#1 153793571#0 153793571#1 714621463#0 154248177#0 154248177#1 154248177#2"/>
    </vehicle>
    <vehicle id="28" depart="28.00">
        <route edges="-71812122#4 71812122#4 71812122#5 -71812040#10 -71812040#9 -71812040#8 -71812040#7 -71812040#6 -71812040#5 -71812040#4 -71812040#3 -71812040#2 -71812040#1 -71812040#0 71812036 30314353#2 30314353#3 30314353#4 30314353#5 30314353#6 30314353#7 30314353#8 30314353#9 30314353#10 30314353#11 1395474460 30314386#0 30314386#1 30314386#2 30314386#3 30314386#4 30314386#5 30314386#6 30314386#7 30314386#8 30314386#9 30314386#10 30314386#11 30314386#12 727298390#0 727298390#1 727298390#2 727298390#3 727298390#4 727298393 32906407#0 32906407#1 32906407#2 32906407#3 32906407#4 32906407#5 32906407#6 32906407#7 32906407#8 32906407#9 32906407#10 32906407#11 32906407#12 32906407#13 32906407#14 32906407#15 32906407#16 32906407#17 32906407#18 32906407#19 32906407#20 32906407#21 32906407#22 32906407#23 32906407#24 32906407#25 32906407#26 32906407#27 32906407#28 32906407#29 32906407#30 32906407#31 32906407#32 32906407#33 32906407#34 32906407#35 32906407#36 32906407#37 385875410#0 385875410#1 927279133#0 927279134#5 -927279135#3 -927279135#2"/>
    </vehicle>
    <vehicle id="29" depart="29.00">
        <route edges="154243741 154243804#4 154243713#1 154243713#2 619139189#5 619139189#6 140226525#23 140226525#24 740723071#0 427957750 714605685#1 422860506#1 153793538#0 153793538#1 153793538#2 153793558 153793539#0 140226505 727298390#0 727298390#1 727298390#2 727298390#3 727298390#4 727298393 32906407#0 32906407#1 32906407#2 32906407#3 32906407#4 32906407#5 32906407#6 32906407#7 32906407#8 32906407#9 32906407#10 32906407#11 32906407#12 32906407#13 32906407#14 32906407#15 32906407#16 32906407#17 32906407#18 32906407#19 32906407#20 32906407#21 32906407#22 32906407#23 32906407#24 32906407#25 32906407#26 32906407#27 32906407#28 32906407#29 32906407#30 32906407#31 32906407#32 32906407#33 154532738#0 154532738#1 696819547#0 154532715#0 154532715#1 154532742#0 -155074075#0"/>
    </vehicle>
    <vehicle id="30" depart="30.00">
        <route edges="1233440745#8 -1233440745#8 -1233440745#7 -1233440745#6 -1233440745#5 -1233440745#4 -1233440745#3 -385875458#2 -385875458#1 -385875458#0 32906407#9 32906407#10 153641998 -153641912#31 -153641912#30 -153641912#29 -153641912#28 -153641912#27 -153641912#26 -153641912#25 -153641912#24 -153641912#23 385833326#0 385833326#1 385833326#2 385833326#3 385833326#4 385833326#5 153793546#3 153793546#4 153793546#5 140098862 202194429#0 202194429#1 202194429#2 422860509 427890465 714605683#7 714605683#8 714605683#0 714605683#1 714605683#2 714605683#3 727288163#0 727288163#1 -140226525#24 -140226525#23 -140226525#22 -140226525#21 -140226525#20 -140226525#19 -140226525#18 -140226525#17 -140226525#16 -140226525#15 -140226525#14 -140226525#13 -140226525#12 -140226525#11 -140226525#10 -140226525#9 -140226525#8 -140226525#7 -140226525#6 -140226525#5 -140226525#4 -140226525#3 -140226525#2 -448980728"/>
    </vehicle>
    <vehicle id="31" depart="31.00">
        <route edges="140226525#1 140226525#2 140226525#3 140226525#4 140226525#5 140226525#6 140226525#7 140226525#8 140226525#9 140226525#10 140226525#11 140226525#12 140226525#13 140226525#14 140226525#15 140226525#16 140226525#17 140226525#18 140226525#19 140226525#20 140226525#21 140226525#22 140226525#23 140226525#24 740723071#0 427957750 714605685#1 422860506#1 153793538#0 153793538#1 153793538#2 153793558 153793539#0 140226505 727298390#0 727298390#1 727298390#2 727298390#3 727298390#4 727298393 32906407#0 32906407#1 32906407#2 32906407#3 32906407#4 32906407#5 32906407#6 32906407#7 32906407#8 32906407#9 32906407#10 153641998 -153641912#31 -153641912#30 -153641912#29 -153641912#28 -153641912#27 -153641912#26 -153641912#25 -153641912#24 -153641912#23 -696817312#2 -696817312#1"/>
    </vehicle>
    <vehicle id="32" depart="32.00">
        <route edges="-154243786 153793561#1 -153793565#0 448980728 140226525#2 140226525#3 140226525#4 140226525#5 140226525#6 140226525#7 140226525#8 140226525#9 140226525#10 140226525#11 140226525#12 140226525#13 -154243824#1 -154243787#4"/>
    </vehicle>
    <vehicle id="33" depart="33.00">
        <route edges="71812149#0 71812149#1 71812149#2 155810694 -71812157#1 -71812157#0 -71812074 71809596#6 71809596#7 71812122#4 71812122#5 -71812040#10 -71812040#9 -71812040#8"/>
    </vehicle>
    <vehicle id="34" depart="34.00">
        <route edges="155810694 -71812157#1 -71812157#0 71809598#0 71809598#1 71809598#2 71809598#3 71809598#4 71809598#5 71809596#11 71802817#7 71802817#8 71802817#9 153986392#0 153986392#1 153986391#1 153986395"/>
    </vehicle>
    <vehicle id="35" depart="35.00">
        <route edges="1233513825#8 385875347#0 385875347#1 385875347#2 -385875296#3 154248156#0 154248156#1 154248156#2 154248138#5 154248138#6 154248138#7 154248138#8 -154248117#1 -154248117#0 385833326#3 385833326#4 385833326#5 153793546#3 153793546#4 153793546#5 140098862 202194429#0 202194429#1 202194429#2 422860509 427890465 714605683#7 714605683#8 714605683#0 714605683#1 714605683#2 714605683#3 727288163#0 727288163#1 -140226525#24 -140226525#23 -140226525#22 -140226525#21 -140226525#20 -140226525#19 -140226525#18 -140226525#17 -140226525#16 1067840646 153793543#4 153793543#5 -154243830#4 -153793561#12 154243767#1"/>
    </vehicle>
    <vehicle id="36" depart="36.00">
        <route edges="71808977#6 151063286#7 151063286#8 71802809#2 71802809#3 71802809#4 71802809#5 71802809#6 71802809#7 71802809#8 71802809#9 71802809#10 71802809#11 71802809#12 71802809#13 71802809#14 71802809#15 428817026#3 428817026#4 428817026#5 428817026#6 428817026#7 428817026#0 140226525#0 140226525#1 140226525#2 140226525#3 140226525#4 140226525#5 140226525#6 140226525#7 140226525#8 140226525#9 140226525#10 140226525#11 140226525#12 140226525#13 140226525#14 140226525#15 140226525#16 140226525#17 140226525#18 140226525#19 140226525#20 140226525#21 140226525#22 733127456 154243752#0 154243752#1 154243752#2 154243752#3 635015846#0 635015846#1"/>
    </vehicle>
    <vehicle id="37" depart="37.00">
        <route edges="154248206#1 635015837 -154248148#1 -154248151#2 -154248151#1 -154248151#0 153641912#18 153641912#19 153641912#20 153641912#21 153641912#22 385833326#0 385833326#1 385833326#2 385833326#3 385833326#4 385833326#5 153793546#3 153793546#4 153793546#5 140098862 202194429#0 202194429#1 202194429#2 422860509 427890465 714605683#7 714605683#8 714605683#0 714605683#1 714605683#2 714605683#3 727288163#0 727288163#1 -140226525#24 -140226525#23 -140226525#22 -140226525#21 -140226525#20 -140226525#19 -140226525#18 -140226525#17 -140226525#16 -140226525#15 -140226525#14 -140226525#13 -140226525#12 -140226525#11 -140226525#10 -140226525#9 -140226525#8 -140226525#7 -140226525#6 -140226525#5 -140226525#4 -140226525#3 -140226525#2 -140226525#1 -140226525#0 428817026#1 428817026#2 428817026#3 71786138#0 71786138#1 71786138#2 71786138#3 71786138#4 71786138#5 71786138#6 71786138#7 71786138#8 -450103155 450103153#0 450103153#1 71808881#0 71808881#1 151330270#5"/>
    </vehicle>
    <vehicle id="38" depart="38.00">
        <route edges="-71798312#6 -1209053740#2 -1209053740#1 -1209053740#0 675701522#7 675701522#8 675701522#9 675701522#10 30314353#4 30314353#5 30314353#6 30314353#7 30314353#8 30314353#9 30314353#10 30314353#11 1395474460 30314386#0 30314386#1 30314386#2 30314386#3 30314386#4 30314386#5 30314386#6 30314386#7 30314386#8 30314386#9 30314386#10 30314386#11 30314386#12 727298390#0 727298390#1 727298390#2 727298390#3 727298390#4 727298393 32906407#0 32906407#1 32906407#2 32906407#3 696620768"/>
    </vehicle>
    <vehicle id="39" depart="39.00">
        <route edges="71798316 -71798312#11 -71798255 -1233097236 -71786138#10 -71786138#9 -71786138#8 -71786138#7 -71786138#6 -71786138#5 -71786138#4 -71786138#3 -71786138#2 -71786138#1 -71786138#0 428817026#4 428817026#5 428817026#6 428817026#7 428817026#0 140226525#0 140226525#1 140226525#2 448980725#0 -127073223#2 -127073223#1 -422864931#1 -450379088 -127076363#0"/>
    </vehicle>
    <vehicle id="40" depart="40.00">
        <route edges="-153793554#0 -153793547#7 -153793547#6 -153793547#5 -153793547#4 -153793547#3 -153793547#2 -153793547#1 -153793547#0 140226525#12 140226525#13 -154243824#1 -154243787#4"/>
    </vehicle>
    <vehicle id="41" depart="41.00">
        <route edges="30314386#4 30314410#0 30314410#1 30314410#2 71759200#0 71759200#1 71759200#2 71759200#3 71759200#4 71759196#2 379387057#0 784963024#0 784963024#1 784963024#2 1164369702 784103773#1"/>
    </vehicle>
    <vehicle id="42" depart="42.00">
        <route edges="785748716#6 785748716#7 785748716#8 785748716#9 785748716#10 785748716#11 785748713#6 30314463#6 30314463#7 30314463#8 30314463#9 30314463#10 30314463#11 385433952#3 385433952#4 385433959 385433950 385433955 385433951#1 385433951#2 385433956 385433949#0 385433949#1 385433949#2 385433949#3 385433949#4 1040183133 380448518 380448513 71759201 71759200#1 71759200#2 1136171108#0 1136171108#1 1136171108#2"/>
    </vehicle>
    <vehicle id="43" depart="43.00">
        <route edges="154248139#11 385875423#0 -154248145#2 -154248145#1 -154248145#0 -154248176#3 154248138#0 154248138#1 154248138#2 154248138#3 154248138#4 154248138#5 154248138#6 154248138#7 154248138#8 -154248117#1 -154248117#0 385833326#3 385833326#4 385833326#5 153793546#3 153793546#4 153793546#5 140098862 202194429#0 202194429#1 202194429#2 422860509 427890465 714605683#7 714605683#8 714605683#0 714605683#1 714605683#2 714605683#3 727288163#0 727288163#1 -140226525#24 -140226525#23 -140226525#22 -140226525#21 -154243799#5 -154243799#4 -154243799#3 -154243799#2 -154243821 1160861108#1 -1160861106"/>
    </vehicle>
    <vehicle id="44" depart="44.00">
        <route edges="-71808910#0 71808929#6 151330272 -71786138#3 -71786138#2 -71786138#1 -71786138#0 428817026#4 428817026#5 428817026#6 428817026#7 428817026#0 140226525#0 140226525#1 140226525#2 140226525#3 140226525#4 140226525#5 140226525#6 140226525#7 140226525#8 140226525#9 140226525#10 140226525#11 153793547#0 153793547#1 153793543#11 153793543#12"/>
    </vehicle>
    <vehicle id="45" depart="45.00">
        <route edges="-714624666#0 -154248119#9 -154248119#8 -154248119#7 -154248119#6 -154248119#5 -154248119#4 -154248119#3 -154248119#2 -154248119#1 -154248119#0 385833326#3 385833326#4 385833326#5 153793546#3 153793546#4 153793546#5 140098862 202194429#0 202194429#1 202194429#2 422860509 427890465 714605683#7 714605683#8 714605683#0 714605683#1 714605683#2 714605683#3 727288163#0 727288163#1 -140226525#24 -140226525#23 -140226525#22 -140226525#21 -140226525#20 -140226525#19 -140226525#18 -140226525#17 -140226525#16 -140226525#15 -140226525#14 -140226525#13 -140226525#12 -140226525#11 -140226525#10 -140226525#9 -140226525#8 -140226525#7 -140226525#6 -140226525#5 -140226525#4 -140226525#3 -140226525#2 -140226525#1 -140226525#0 428817026#1 428817026#2 428817026#3 71786138#0 71786138#1 71786138#2 71786138#3 71786138#4 71786138#5 71786138#6 379387050#0 379387050#1 379387043 151329874#0 151329874#1 -151329881#1 151329886#5"/>
    </vehicle>
    <vehicle id="46" depart="46.00">
        <route edges="785748715#2 785748715#3 -785748715#3 -785748715#2 -785748715#1 -785748715#0 30314463#5 30314463#6 30314463#7 30314463#8 30314463#9 30314463#10 30314463#11 385433952#3 385433952#4 385433959 385433950 385433955 385433951#1 385433951#2 385433956 385433949#0 385433949#1 385433949#2 385433949#3 385433949#4 1040183133 380448518 380448513 71759201 71759200#1 71759200#2 71759200#3 71759200#4 71759196#2 379387057#0 -784963025#4 -784963025#3"/>
    </vehicle>
    <vehicle id="47" depart="47.00">