<?xml version="1.0" encoding="UTF-8"?>

<!-- generated on 2026-03-12 22:00:05.467719 by Eclipse SUMO randomTrips.py v1_26_0+0000-fa7df22d7f1
<configuration>
    <net-file value="home_map.net.xml"/>
    <output-trip-file value="home_trips.xml"/>
    <end value="1000.0"/>
</configuration>
-->

<routes xmlns:xsi="http://www.w3.org/2001/XMLSchema-instance" xsi:noNamespaceSchemaLocation="http://sumo.dlr.de/xsd/routes_file.xsd">
    <trip id="0" depart="0.00" from="154248125#3" to="-1233441432#1"/>
    <trip id="1" depart="1.00" from="-380448518" to="-154532726#4"/>
    <trip id="2" depart="2.00" from="169411964" to="154248175#0"/>
    <trip id="3" depart="3.00" from="71802818" to="-153793543#9"/>
    <trip id="4" depart="4.00" from="-71812090" to="-1233443471#2"/>
    <trip id="5" depart="5.00" from="-154532718#2" to="1233513820#0"/>
    <trip id="6" depart="6.00" from="-1233441434#6" to="-154248183#1"/>
    <trip id="7" depart="7.00" from="154248139#12" to="151330270#4"/>
    <trip id="8" depart="8.00" from="-154532720#1" to="154243710#1"/>
    <trip id="9" depart="9.00" from="457939264#2" to="-1104587793#1"/>
    <trip id="10" depart="10.00" from="45051146#0" to="154248204#9"/>
    <trip id="11" depart="11.00" from="-696830479" to="-154248119#13"/>
    <trip id="12" depart="12.00" from="727288160#10" to="-696817312#2"/>
    <trip id="13" depart="13.00" from="-153793554#3" to="-153793565#2"/>
    <trip id="14" depart="14.00" from="696843546" to="154243763#5"/>
    <trip id="15" depart="15.00" from="457935598#1" to="154642677#1"/>
    <trip id="16" depart="16.00" from="151329879#6" to="784103773#0"/>
    <trip id="17" depart="17.00" from="-71802838#8" to="153641912#29"/>
    <trip id="18" depart="18.00" from="673236407#1" to="154243814#1"/>
    <trip id="19" depart="19.00" from="714623934#1" to="153793568#0"/>
    <trip id="20" depart="20.00" from="154532728#2" to="-127073094#1"/>
    <trip id="21" depart="21.00" from="-154532734#4" to="-385875414#0"/>
    <trip id="22" depart="22.00" from="-153793521#9" to="-154532738#9"/>
    <trip id="23" depart="23.00" from="-153793570#1" to="-385833331#4"/>
    <trip id="24" depart="24.00" from="154248119#8" to="-71798324#5"/>
    <trip id="25" depart="25.00" from="-71802825#10" to="-154248198#1"/>
    <trip id="26" depart="26.00" from="-370403158#0" to="71809609#1"/>
    <trip id="27" depart="27.00" from="154248138#0" to="154243780"/>
    <trip id="28" depart="28.00" from="-154248139#7" to="154642676#2"/>
    <trip id="29" depart="29.00" from="-154248127#8" to="-71802838#11"/>
    <trip id="30" depart="30.00" from="883000231" to="154248120#4"/>
    <trip id="31" depart="31.00" from="153793542#0" to="154248188#1"/>
    <trip id="32" depart="32.00" from="696830478" to="385875303#5"/>
    <trip id="33" depart="33.00" from="-154532736#1" to="-1233443475#1"/>
    <trip id="34" depart="34.00" from="-635015838#0" to="-370403156#0"/>
    <trip id="35" depart="35.00" from="-154248200#1" to="71812040#12"/>
    <trip id="36" depart="36.00" from="71798312#6" to="-543597718#0"/>
    <trip id="37" depart="37.00" from="154248144#4" to="-71808948#3"/>
    <trip id="38" depart="38.00" from="71808929#1" to="-883000234#1"/>
    <trip id="39" depart="39.00" from="-32906407#4" to="-154642675"/>
    <trip id="40" depart="40.00" from="153793546#0" to="-32906407#15"/>
    <trip id="41" depart="41.00" from="154243704#0" to="71802828#5"/>
    <trip id="42" depart="42.00" from="-71808995#8" to="-154532718#1"/>
    <trip id="43" depart="43.00" from="93341646" to="1233513825#4"/>
    <trip id="44" depart="44.00" from="-153793548#8" to="-127073137#2"/>
    <trip id="45" depart="45.00" from="-154243713#2" to="154248102#3"/>
    <trip id="46" depart="46.00" from="-151329879#0" to="-71808842"/>
    <trip id="47" depart="47.00" from="927279141#2" to="140226504"/>
    <trip id="48" depart="48.00" from="784103771#1" to="71418065#1"/>
    <trip id="49" depart="49.00" from="-1164369701#0" to="154532747#7"/>
    <trip id="50" depart="50.00" from="154248187#6" to="150770806"/>
    <trip id="51" depart="51.00" from="-370403157#1" to="154248122#1"/>
    <trip id="52" depart="52.00" from="-154243723#5" to="-732893165"/>
    <trip id="53" depart="53.00" from="-87551114#3" to="71812157#2"/>
    <trip id="54" depart="54.00" from="71798312#3" to="-32906407#2"/>
    <trip id="55" depart="55.00" from="1233443475#3" to="-154248148#1"/>
    <trip id="56" depart="56.00" from="71808910#2" to="71759198#2"/>
    <trip id="57" depart="57.00" from="-418296100#1" to="154248119#7"/>
    <trip id="58" depart="58.00" from="154243796#0" to="-154248116"/>
    <trip id="59" depart="59.00" from="379387050#0" to="151329879#0"/>
    <trip id="60" depart="60.00" from="385875353#1" to="140226525#1"/>
    <trip id="61" depart="61.00" from="-1031136593#3" to="-654841659#2"/>
    <trip id="62" depart="62.00" from="-1228250344#0" to="71809595#9"/>
    <trip id="63" depart="63.00" from="71798329#1" to="675701522#2"/>
    <trip id="64" depart="64.00" from="-450379087#3" to="-1421667390"/>
    <trip id="65" depart="65.00" from="71798324#3" to="71812092#1"/>
    <trip id="66" depart="66.00" from="-153793543#15" to="1180393608"/>
    <trip id="67" depart="67.00" from="-151330270#4" to="379383398#1"/>
    <trip id="68" depart="68.00" from="379387059#1" to="-154243786"/>
    <trip id="69" depart="69.00" from="1136171108#2" to="153641912#15"/>
    <trip id="70" depart="70.00" from="-32906407#5" to="71784185#5"/>
    <trip id="71" depart="71.00" from="-71812100#0" to="-154248200#2"/>
    <trip id="72" depart="72.00" from="151329896#0" to="154642677#2"/>
    <trip id="73" depart="73.00" from="-154248187#5" to="-457939263#1"/>
    <trip id="74" depart="74.00" from="927279140#2" to="154248136#0"/>
    <trip id="75" depart="75.00" from="-784103771#5" to="127073094#2"/>
    <trip id="76" depart="76.00" from="-154243759#4" to="-154532728#3"/>
    <trip id="77" depart="77.00" from="-696819553" to="154243699#2"/>
    <trip id="78" depart="78.00" from="-154532736#8" to="-154532719#0"/>
    <trip id="79" depart="79.00" from="-151330276#0" to="154248103#8"/>
    <trip id="80" depart="80.00" from="-154532736#0" to="71808850#1"/>
    <trip id="81" depart="81.00" from="71418066#2" to="-151738437#3"/>
    <trip id="82" depart="82.00" from="-154532748#1" to="154248158#1"/>
    <trip id="83" depart="83.00" from="-154248204#3" to="-154243798#2"/>
    <trip id="84" depart="84.00" from="71809607#1" to="153793554#4"/>
    <trip id="85" depart="85.00" from="1104587793#1" to="385875423#3"/>
    <trip id="86" depart="86.00" from="457935600#0" to="-154248165#0"/>
    <trip id="87" depart="87.00" from="-153793564#0" to="-71812151#3"/>
    <trip id="88" depart="88.00" from="-71812100#3" to="-93341679#0"/>
    <trip id="89" depart="89.00" from="155074058#1" to="154248165#2"/>
    <trip id="90" depart="90.00" from="87242484#4" to="-153793568#6"/>
    <trip id="91" depart="91.00" from="-71809595#21" to="-696820790#1"/>
    <trip id="92" depart="92.00" from="714623934#0" to="-155074057#1"/>
    <trip id="93" depart="93.00" from="-154248164#3" to="-785748715#4"/>
    <trip id="94" depart="94.00" from="-71812090" to="-385833333#0"/>
    <trip id="95" depart="95.00" from="-155074070#0" to="71808995#1"/>
    <trip id="96" depart="96.00" from="-784963025#0" to="71418066#3"/>
    <trip id="97" depart="97.00" from="153793521#1" to="-1315730168"/>
    <trip id="98" depart="98.00" from="93341673#2" to="696557929"/>
    <trip id="99" depart="99.00" from="784103764#0" to="71809595#15"/>
    <trip id="100" depart="100.00" from="697048639" to="-154248135#3"/>
    <trip id="101" depart="101.00" from="1228249162#2" to="-154248204#12"/>
    <trip id="102" depart="102.00" from="-71809595#11" to="-150770799#0"/>
    <trip id="103" depart="103.00" from="-71808837#1" to="87242487"/>
    <trip id="104" depart="104.00" from="-32906407#6" to="385875415#3"/>
    <trip id="105" depart="105.00" from="-87551138#1" to="-71812040#6"/>
    <trip id="106" depart="106.00" from="727288160#11" to="927279140#0"/>
    <trip id="107" depart="107.00" from="153793534#6" to="154532744#1"/>
    <trip id="108" depart="108.00" from="-154248117#9" to="-385887990#0"/>
    <trip id="109" depart="109.00" from="783831644" to="153793569#5"/>
    <trip id="110" depart="110.00" from="151330273#3" to="30314463#11"/>
    <trip id="111" depart="111.00" from="-140226525#2" to="153986395"/>
    <trip id="112" depart="112.00" from="1233513822#10" to="71137548#0"/>
    <trip id="113" depart="113.00" from="-154248120#1" to="727298390#10"/>
    <trip id="114" depart="114.00" from="-153793522#1" to="-154248158#0"/>
    <trip id="115" depart="115.00" from="154243749#8" to="154248171#4"/>
    <trip id="116" depart="116.00" from="-154532744#0" to="-154243759#2"/>
    <trip id="117" depart="117.00" from="71802817#0" to="-154642670#1"/>
    <trip id="118" depart="118.00" from="154243749#5" to="154243817#0"/>
    <trip id="119" depart="119.00" from="-71812040#20" to="153986392#3"/>
    <trip id="120" depart="120.00" from="1395474459" to="71809603#7"/>
    <trip id="121" depart="121.00" from="-154248190#6" to="154532739#6"/>
    <trip id="122" depart="122.00" from="-154532748#4" to="-71808948#4"/>
    <trip id="123" depart="123.00" from="154248170#1" to="-418296102#1"/>
    <trip id="124" depart="124.00" from="-635015843#0" to="32906407#25"/>
    <trip id="125" depart="125.00" from="-151738437#7" to="-883000231"/>
    <trip id="126" depart="126.00" from="93341650#1" to="927279140#4"/>
    <trip id="127" depart="127.00" from="-153641912#10" to="-154248203#1"/>
    <trip id="128" depart="128.00" from="-32906407#6" to="71809603#11"/>
    <trip id="129" depart="129.00" from="71798351#0" to="71798324#6"/>
    <trip id="130" depart="130.00" from="-71802792#2" to="-154248121#0"/>
    <trip id="131" depart="131.00" from="696557925" to="154532720#2"/>
    <trip id="132" depart="132.00" from="154243803#2" to="87551113#2"/>
    <trip id="133" depart="133.00" from="154248143#4" to="-1136171105"/>
    <trip id="134" depart="134.00" from="635015846#0" to="-418296100#2"/>
    <trip id="135" depart="135.00" from="154248155#2" to="71809612#6"/>
    <trip id="136" depart="136.00" from="-154243800" to="-154243748#0"/>
    <trip id="137" depart="137.00" from="-154243697#0" to="153641912#8"/>
    <trip id="138" depart="138.00" from="-379387045" to="154243770#2"/>
    <trip id="139" depart="139.00" from="154532747#2" to="-154248190#15"/>
    <trip id="140" depart="140.00" from="154248119#11" to="-32906407#23"/>
    <trip id="141" depart="141.00" from="1229785757#4" to="71808850#1"/>
    <trip id="142" depart="142.00" from="696830488#2" to="-153793556#3"/>
    <trip id="143" depart="143.00" from="-71812100#3" to="-385433949#1"/>
    <trip id="144" depart="144.00" from="-1104587784#0" to="385833331#0"/>
    <trip id="145" depart="145.00" from="154248121#2" to="-32906407#10"/>
    <trip id="146" depart="146.00" from="233200744#1" to="153641912#27"/>
    <trip id="147" depart="147.00" from="-71812149#3" to="-1136171111#0"/>
    <trip id="148" depart="148.00" from="-153641912#22" to="71802785#3"/>
    <trip id="149" depart="149.00" from="71808844" to="151330271#1"/>
    <trip id="150" depart="150.00" from="696557930#1" to="153793573#7"/>
    <trip id="151" depart="151.00" from="-154248103#15" to="-154243779#2"/>
    <trip id="152" depart="152.00" from="-457935596#1" to="71802830#4"/>
    <trip id="153" depart="153.00" from="428906231#3" to="71418065#1"/>
    <trip id="154" depart="154.00" from="71802833#0" to="-154248198#13"/>
    <trip id="155" depart="155.00" from="-155074068#1" to="-153986403#0"/>
    <trip id="156" depart="156.00" from="385875379#1" to="71802789#0"/>
    <trip id="157" depart="157.00" from="-71809598#0" to="154243824#0"/>
    <trip id="158" depart="158.00" from="-154248117#7" to="71809596#12"/>
    <trip id="159" depart="159.00" from="714624660" to="784963023#0"/>
    <trip id="160" depart="160.00" from="521950793#1" to="71798346#1"/>
    <trip id="161" depart="161.00" from="-1233440746" to="169411926#0"/>
    <trip id="162" depart="162.00" from="-696557926#1" to="71809596#8"/>
    <trip id="163" depart="163.00" from="450103151#3" to="714623942#1"/>
    <trip id="164" depart="164.00" from="521950793#0" to="-32906407#7"/>
    <trip id="165" depart="165.00" from="385887983#1" to="-154243711"/>
    <trip id="166" depart="166.00" from="71784192#4" to="71417986#2"/>
    <trip id="167" depart="167.00" from="-154532726#3" to="619139190#0"/>
    <trip id="168" depart="168.00" from="-927279140#3" to="-450103151#3"/>
    <trip id="169" depart="169.00" from="427890465" to="-154532733#4"/>
    <trip id="170" depart="170.00" from="-1233440745#1" to="-154248172#3"/>
    <trip id="171" depart="171.00" from="-673236332#1" to="714623942#3"/>
    <trip id="172" depart="172.00" from="740723069#11" to="-385875296#1"/>
    <trip id="173" depart="173.00" from="154248127#3" to="-71808977#7"/>
    <trip id="174" depart="174.00" from="785748716#6" to="150770803#2"/>
    <trip id="175" depart="175.00" from="71812023" to="-154243748#0"/>
    <trip id="176" depart="176.00" from="784103768#2" to="-154248148#0"/>
    <trip id="177" depart="177.00" from="727298393" to="-32906407#32"/>
    <trip id="178" depart="178.00" from="-154243704#0" to="-732893164"/>
    <trip id="179" depart="179.00" from="155074057#0" to="-521950793#2"/>
    <trip id="180" depart="180.00" from="154243787#2" to="1233513860"/>
    <trip id="181" depart="181.00" from="-71808882" to="153793565#3"/>
    <trip id="182" depart="182.00" from="-169411927#0" to="154532731#0"/>
    <trip id="183" depart="183.00" from="-1076483424#0" to="71809595#1"/>
    <trip id="184" depart="184.00" from="151329893#0" to="154532746#2"/>
    <trip id="185" depart="185.00" from="233200747#1" to="154248161#2"/>
    <trip id="186" depart="186.00" from="-71798331#0" to="-151330276#1"/>
    <trip id="187" depart="187.00" from="154248156#2" to="-696541123#0"/>
    <trip id="188" depart="188.00" from="-543597717#1" to="696830488#2"/>
    <trip id="189" depart="189.00" from="154532748#7" to="-422864931#1"/>
    <trip id="190" depart="190.00" from="-457935600#0" to="-71809596#7"/>
    <trip id="191" depart="191.00" from="-71809595#20" to="-385887983#2"/>
    <trip id="192" depart="192.00" from="-154243775" to="-71812040#10"/>
    <trip id="193" depart="193.00" from="71812030#1" to="154248176#1"/>
    <trip id="194" depart="194.00" from="71802838#9" to="154243803#2"/>
    <trip id="195" depart="195.00" from="-422876196" to="151738437#4"/>
    <trip id="196" depart="196.00" from="-1031136593#2" to="-385875353#2"/>
    <trip id="197" depart="197.00" from="-71812175#2" to="153793571#1"/>
    <trip id="198" depart="198.00" from="154248143#9" to="-93341649#0"/>
    <trip id="199" depart="199.00" from="-784963023#1" to="-154248204#11"/>
    <trip id="200" depart="200.00" from="1135195146#0" to="71802837#3"/>
    <trip id="201" depart="201.00" from="428906231#2" to="-154248139#10"/>
    <trip id="202" depart="202.00" from="-153793543#1" to="127072992#3"/>
    <trip id="203" depart="203.00" from="154248117#6" to="-696620768"/>
    <trip id="204" depart="204.00" from="635015851#0" to="32906407#20"/>
    <trip id="205" depart="205.00" from="154248172#1" to="-154532728#2"/>
    <trip id="206" depart="206.00" from="-154248184#3" to="-1233440745#8"/>
    <trip id="207" depart="207.00" from="-154642669#5" to="1104587793#0"/>
    <trip id="208" depart="208.00" from="71137544#1" to="-153641912#15"/>
    <trip id="209" depart="209.00" from="-71812022" to="154248103#20"/>
    <trip id="210" depart="210.00" from="-154248176#2" to="154248204#13"/>
    <trip id="211" depart="211.00" from="1233441434#6" to="-154636090#0"/>
    <trip id="212" depart="212.00" from="154248145#2" to="-1104587790#2"/>
    <trip id="213" depart="213.00" from="32906407#3" to="385433959"/>
    <trip id="214" depart="214.00" from="-153986456#1" to="-71812092#2"/>
    <trip id="215" depart="215.00" from="-154248144#5" to="727288160#13"/>
    <trip id="216" depart="216.00" from="1315730166#2" to="-1315730167#1"/>
    <trip id="217" depart="217.00" from="-155074066" to="696830490"/>
    <trip id="218" depart="218.00" from="-883000234#0" to="448980748#0"/>
    <trip id="219" depart="219.00" from="154248161#2" to="87551114#3"/>
    <trip id="220" depart="220.00" from="154243752#0" to="71812122#0"/>
    <trip id="221" depart="221.00" from="71802817#5" to="154243795"/>
    <trip id="222" depart="222.00" from="154532748#4" to="1233443477#4"/>
    <trip id="223" depart="223.00" from="675701522#5" to="151738437#3"/>
    <trip id="224" depart="224.00" from="71802828#6" to="233200747#1"/>
    <trip id="225" depart="225.00" from="1136171107#1" to="-233200744#0"/>
    <trip id="226" depart="226.00" from="-155074056#0" to="154248119#11"/>
    <trip id="227" depart="227.00" from="379387059#1" to="1311506894"/>
    <trip id="228" depart="228.00" from="154248103#4" to="-379387052#1"/>
    <trip id="229" depart="229.00" from="-153641912#9" to="-385875346#1"/>
    <trip id="230" depart="230.00" from="-379383489#1" to="-635015851#2"/>
    <trip id="231" depart="231.00" from="151329898#3" to="-154243820#1"/>
    <trip id="232" depart="232.00" from="-154532738#3" to="154248199"/>
    <trip id="233" depart="233.00" from="154532731#0" to="-151329886#0"/>
    <trip id="234" depart="234.00" from="-71809600" to="151329893#0"/>
    <trip id="235" depart="235.00" from="-71812030#3" to="-154248195#2"/>
    <trip id="236" depart="236.00" from="-71812040#5" to="71808846#2"/>
    <trip id="237" depart="237.00" from="154243699#1" to="154248203#1"/>
    <trip id="238" depart="238.00" from="71417986#1" to="379387054#0"/>
    <trip id="239" depart="239.00" from="-71808850#0" to="-1104587790#4"/>
    <trip id="240" depart="240.00" from="-714623942#2" to="32906407#36"/>
    <trip id="241" depart="241.00" from="71137581#1" to="71812151#5"/>
    <trip id="242" depart="242.00" from="-71812040#19" to="30314463#0"/>
    <trip id="243" depart="243.00" from="153641912#18" to="154243763#2"/>
    <trip id="244" depart="244.00" from="-154532720#2" to="-154532718#2"/>
    <trip id="245" depart="245.00" from="-784103764#3" to="-1233441440#0"/>
    <trip id="246" depart="246.00" from="-696817312#2" to="154248177#7"/>
    <trip id="247" depart="247.00" from="-71809595#9" to="-154248131#0"/>
    <trip id="248" depart="248.00" from="1039274480#1" to="-154243779#3"/>
    <trip id="249" depart="249.00" from="154248098#0" to="-1233441437#1"/>
    <trip id="250" depart="250.00" from="-71808968#6" to="153793543#3"/>
    <trip id="251" depart="251.00" from="-1233441437#0" to="154248125#3"/>
    <trip id="252" depart="252.00" from="-154243807#0" to="-927279138#0"/>
    <trip id="253" depart="253.00" from="-1315730166#0" to="-71802838#1"/>
    <trip id="254" depart="254.00" from="-154248201#2" to="-673235785#1"/>
    <trip id="255" depart="255.00" from="379383489#0" to="-71802838#1"/>
    <trip id="256" depart="256.00" from="32906407#36" to="675701522#4"/>
    <trip id="257" depart="257.00" from="-155810708#1" to="-153793534#3"/>
    <trip id="258" depart="258.00" from="-1228250343#1" to="151329879#0"/>
    <trip id="259" depart="259.00" from="962552873" to="-71418064#2"/>
    <trip id="260" depart="260.00" from="154248139#2" to="385875371#1"/>
    <trip id="261" depart="261.00" from="154248142#0" to="32906407#7"/>
    <trip id="262" depart="262.00" from="71812105#2" to="-154248184#2"/>
    <trip id="263" depart="263.00" from="-1229785757#2" to="-154248114#2"/>
    <trip id="264" depart="264.00" from="-154243772#5" to="154248159#1"/>
    <trip id="265" depart="265.00" from="153793548#3" to="-154532715#3"/>
    <trip id="266" depart="266.00" from="154532718#2" to="379387057#3"/>
    <trip id="267" depart="267.00" from="-154248136#5" to="154243773#2"/>
    <trip id="268" depart="268.00" from="32906407#10" to="-154243743#1"/>
    <trip id="269" depart="269.00" from="635015855#1" to="732893169#0"/>
    <trip id="270" depart="270.00" from="-154243701" to="-1233441434#2"/>
    <trip id="271" depart="271.00" from="-461731935" to="154248176#1"/>
    <trip id="272" depart="272.00" from="727288160#5" to="-71808968#2"/>
    <trip id="273" depart="273.00" from="154532742#0" to="-153641912#7"/>
    <trip id="274" depart="274.00" from="154248198#5" to="154248102#2"/>
    <trip id="275" depart="275.00" from="-153793573#5" to="385833333#2"/>
    <trip id="276" depart="276.00" from="71137544#5" to="154243757#0"/>
    <trip id="277" depart="277.00" from="-154243759#5" to="87242458#6"/>
    <trip id="278" depart="278.00" from="385875423#5" to="-71417982#1"/>
    <trip id="279" depart="279.00" from="-71812151#4" to="-71802789#7"/>
    <trip id="280" depart="280.00" from="1233513825#1" to="-696830481#1"/>
    <trip id="281" depart="281.00" from="71137544#0" to="635015856#6"/>
    <trip id="282" depart="282.00" from="-153986439#0" to="727298390#10"/>
    <trip id="283" depart="283.00" from="154248119#7" to="673235963#2"/>
    <trip id="284" depart="284.00" from="154532733#2" to="-732893168#2"/>
    <trip id="285" depart="285.00" from="155810721#0" to="732893170#1"/>
    <trip id="286" depart="286.00" from="-379383438#0" to="457935596#1"/>
    <trip id="287" depart="287.00" from="151329886#7" to="1180393601#1"/>
    <trip id="288" depart="288.00" from="-784103764#1" to="155074058#0"/>
    <trip id="289" depart="289.00" from="-370403162#0" to="71137544#3"/>
    <trip id="290" depart="290.00" from="675701522#6" to="-153793543#7"/>
    <trip id="291" depart="291.00" from="71802785#10" to="-154618548#7"/>
    <trip id="292" depart="292.00" from="1031136593#0" to="154243787#4"/>
    <trip id="293" depart="293.00" from="-71808837#1" to="-1233441439#2"/>
    <trip id="294" depart="294.00" from="71137548#0" to="-154248153#2"/>
    <trip id="295" depart="295.00" from="-154248202#2" to="428906231#0"/>
    <trip id="296" depart="296.00" from="-696830480#0" to="71798331#1"/>
    <trip id="297" depart="297.00" from="154532720#1" to="-380448518"/>
    <trip id="298" depart="298.00" from="-1160861106" to="71812100#0"/>
    <trip id="299" depart="299.00" from="-153793543#14" to="154532747#3"/>
    <trip id="300" depart="300.00" from="1229785757#5" to="370403158#2"/>
    <trip id="301" depart="301.00" from="154248198#5" to="154248129#1"/>
    <trip id="302" depart="302.00" from="1233440743#1" to="39487893"/>
    <trip id="303" depart="303.00" from="-153793556#0" to="-154532720#4"/>
    <trip id="304" depart="304.00" from="154248200#2" to="-450103153#2"/>
    <trip id="305" depart="305.00" from="153986422" to="1104587787#0"/>
    <trip id="306" depart="306.00" from="1484540306#1" to="-71812098#2"/>
    <trip id="307" depart="307.00" from="30314463#0" to="-696545735#0"/>
    <trip id="308" depart="308.00" from="154532726#2" to="-379383398#4"/>
    <trip id="309" depart="309.00" from="-155810691#0" to="-154243760#1"/>
    <trip id="310" depart="310.00" from="-154248172#2" to="-154243759#0"/>
    <trip id="311" depart="311.00" from="151329879#3" to="379383448#1"/>
    <trip id="312" depart="312.00" from="-154248156#6" to="-154248206#0"/>
    <trip id="313" depart="313.00" from="1226958540#1" to="154532754#0"/>
    <trip id="314" depart="314.00" from="784963024#3" to="1320421558"/>
    <trip id="315" depart="315.00" from="-385875335#0" to="-153793573#4"/>
    <trip id="316" depart="316.00" from="-154248175#3" to="-154532733#3"/>
    <trip id="317" depart="317.00" from="-154248149#1" to="-1180393604"/>
    <trip id="318" depart="318.00" from="151063286#7" to="-379387050#1"/>
    <trip id="319" depart="319.00" from="784151495#0" to="153641912#9"/>
    <trip id="320" depart="320.00" from="154532713" to="-154243774"/>
    <trip id="321" depart="321.00" from="71756692#0" to="1228251230#2"/>
    <trip id="322" depart="322.00" from="71786138#10" to="153793561#6"/>
    <trip id="323" depart="323.00" from="1104587777" to="-784103771#5"/>
    <trip id="324" depart="324.00" from="-154248156#1" to="-1315730171#1"/>
    <trip id="325" depart="325.00" from="71812033#1" to="1136171107#2"/>
    <trip id="326" depart="326.00" from="654841656#0" to="-71808989#6"/>
    <trip id="327" depart="327.00" from="-153641912#15" to="154248103#19"/>
    <trip id="328" depart="328.00" from="-1320421558" to="-154248103#5"/>
    <trip id="329" depart="329.00" from="153793547#5" to="-436728858#1"/>
    <trip id="330" depart="330.00" from="927279135#1" to="-154243752#3"/>
    <trip id="331" depart="331.00" from="379387054#5" to="154243772#3"/>
    <trip id="332" depart="332.00" from="39487893" to="-154532729#4"/>
    <trip id="333" depart="333.00" from="1395474458" to="-87242451#0"/>
    <trip id="334" depart="334.00" from="-784963024#2" to="71418064#0"/>
    <trip id="335" depart="335.00" from="883000234#0" to="-450103151#4"/>
    <trip id="336" depart="336.00" from="154248095#4" to="154243786"/>
    <trip id="337" depart="337.00" from="228194454#9" to="71812098#2"/>
    <trip id="338" depart="338.00" from="-154248197#3" to="-154248198#8"/>
    <trip id="339" depart="339.00" from="154248152#3" to="-154248120#1"/>
    <trip id="340" depart="340.00" from="-154248143#0" to="-153641912#29"/>
    <trip id="341" depart="341.00" from="-1104587776#0" to="-87242451#0"/>
    <trip id="342" depart="342.00" from="154243749#10" to="-385875425#0"/>
    <trip id="343" depart="343.00" from="-154532738#4" to="154532728#1"/>
    <trip id="344" depart="344.00" from="154532726#3" to="-87242493#0"/>
    <trip id="345" depart="345.00" from="154248196#2" to="71808995#6"/>
    <trip id="346" depart="346.00" from="385887986#0" to="154248095#5"/>
    <trip id="347" depart="347.00" from="154248152#8" to="71809603#14"/>
    <trip id="348" depart="348.00" from="-71812122#1" to="151330270#1"/>
    <trip id="349" depart="349.00" from="154248137#0" to="71808876#1"/>
    <trip id="350" depart="350.00" from="673235963#0" to="-151738437#7"/>
    <trip id="351" depart="351.00" from="-154248133#0" to="-450379084#4"/>
    <trip id="352" depart="352.00" from="32906407#17" to="153793549"/>
    <trip id="353" depart="353.00" from="-385875414#1" to="-154243771#2"/>
    <trip id="354" depart="354.00" from="154248197#5" to="154532712#2"/>
    <trip id="355" depart="355.00" from="71812040#1" to="1233441440#1"/>
    <trip id="356" depart="356.00" from="1233441434#2" to="-153793529#1"/>
    <trip id="357" depart="357.00" from="-1233513828#0" to="-71812162"/>
    <trip id="358" depart="358.00" from="-654841655" to="-155074068#1"/>
    <trip id="359" depart="359.00" from="-153793550#1" to="727298390#3"/>
    <trip id="360" depart="360.00" from="696616694" to="153793562#4"/>
    <trip id="361" depart="361.00" from="71812122#3" to="93341679#0"/>
    <trip id="362" depart="362.00" from="154248171#2" to="-370403160#1"/>
    <trip id="363" depart="363.00" from="1104587786#2" to="154248138#1"/>
    <trip id="364" depart="364.00" from="71808929#6" to="-154248152#9"/>
    <trip id="365" depart="365.00" from="154243710#1" to="154248114#2"/>
    <trip id="366" depart="366.00" from="1233440745#3" to="-153793554#0"/>
    <trip id="367" depart="367.00" from="-71418062#1" to="-696557928"/>
    <trip id="368" depart="368.00" from="154248164#3" to="71137610#4"/>
    <trip id="369" depart="369.00" from="-696541123#2" to="154248198#8"/>
    <trip id="370" depart="370.00" from="-385875412#0" to="71812040#6"/>
    <trip id="371" depart="371.00" from="619139189#0" to="153641912#17"/>
    <trip id="372" depart="372.00" from="-87551138#0" to="-543597717#1"/>
    <trip id="373" depart="373.00" from="-654841659#0" to="784103764#4"/>
    <trip id="374" depart="374.00" from="-71809595#8" to="1233995082#3"/>
    <trip id="375" depart="375.00" from="87551130#5" to="154248143#7"/>
    <trip id="376" depart="376.00" from="151330275" to="-71809607#1"/>
    <trip id="377" depart="377.00" from="-154248161#1" to="-71798312#11"/>
    <trip id="378" depart="378.00" from="370403158#1" to="154248095#8"/>
    <trip id="379" depart="379.00" from="379383438#3" to="-154248190#15"/>
    <trip id="380" depart="380.00" from="153641912#9" to="71809595#23"/>
    <trip id="381" depart="381.00" from="-784103771#5" to="154248205#0"/>
    <trip id="382" depart="382.00" from="-154243760#0" to="784103773#0"/>
    <trip id="383" depart="383.00" from="154243796#0" to="-154532748#4"/>
    <trip id="384" depart="384.00" from="-154248121#1" to="153641912#21"/>
    <trip id="385" depart="385.00" from="153793522#3" to="-153793561#10"/>
    <trip id="386" depart="386.00" from="927279134#1" to="71808916#1"/>
    <trip id="387" depart="387.00" from="-927279142#0" to="-154243749#7"/>
    <trip id="388" depart="388.00" from="696556342#0" to="1233441437#1"/>
    <trip id="389" depart="389.00" from="154532745#1" to="1233513824#2"/>
    <trip id="390" depart="390.00" from="-379387052#2" to="696557923#1"/>
    <trip id="391" depart="391.00" from="785748716#1" to="-154618548#6"/>
    <trip id="392" depart="392.00" from="153793521#6" to="-71808854#0"/>
    <trip id="393" depart="393.00" from="71808980" to="1233513822#9"/>
    <trip id="394" depart="394.00" from="71798331#1" to="714623942#1"/>
    <trip id="395" depart="395.00" from="-385833331#0" to="385887984"/>
    <trip id="396" depart="396.00" from="-71812024#2" to="71809603#4"/>
    <trip id="397" depart="397.00" from="1233513828#1" to="635015851#1"/>
    <trip id="398" depart="398.00" from="-385875334#3" to="-385887992#8"/>
    <trip id="399" depart="399.00" from="154243718#2" to="93341650#2"/>
    <trip id="400" depart="400.00" from="1230121900" to="-154248103#22"/>
    <trip id="401" depart="401.00" from="151329893#1" to="-696843544"/>
    <trip id="402" depart="402.00" from="153793522#1" to="151329894#3"/>
    <trip id="403" depart="403.00" from="-883000228" to="-635015860#0"/>
    <trip id="404" depart="404.00" from="-154248162#11" to="154248204#5"/>