<?xml version="1.0" encoding="UTF-8"?>

<!-- generated on 2026-03-12 22:00:07.848717 by Eclipse SUMO randomTrips.py v1_26_0+0000-fa7df22d7f1
<configuration>
    <net-file value="home_map.net.xml"/>
    <output-trip-file value="home_trips.xml"/>
    <end value="1000.0"/>
</configuration>
-->

<!-- generated on 2026-03-12T22:00:06.316853+01:00 by Eclipse SUMO duarouter 1.26.0
<duarouterConfiguration xmlns:xsi="http://www.w3.org/2001/XMLSchema-instance" xsi:noNamespaceSchemaLocation="http://sumo.dlr.de/xsd/duarouterConfiguration.xsd">

    <input>
        <net-file value="home_map.net.xml"/>
        <route-files value="home_trips.xml"/>
    </input>

    <output>
        <output-file value="routes.rou.xml"/>
        <alternatives-output value="NUL"/>
    </output>

    <time>
        <begin value="0"/>
        <end value="1000.0"/>
    </time>

    <report>
        <no-warnings value="true"/>
        <ignore-errors value="true"/>
        <no-step-log value="true"/>
    </report>

</duarouterConfiguration>
-->

<routes xmlns:xsi="http://www.w3.org/2001/XMLSchema-instance" xsi:noNamespaceSchemaLocation="http://sumo.dlr.de/xsd/routes_file.xsd">
    <vehicle id="0" depart="0.00">
        <route edges="154248125#3 154248095#10 154248095#11 154248095#12 154248095#13 154248095#14 154248095#15 697048643#0 697048643#1 385887992#8 32906407#5 32906407#6 32906407#7 32906407#8 32906407#9 32906407#10 32906407#11 32906407#12 32906407#13 32906407#14 32906407#15 32906407#16 32906407#17 32906407#18 32906407#19 32906407#20 32906407#21 32906407#22 32906407#23 154248103#20 -1233441432#1"/>
    </vehicle>
    <vehicle id="1" depart="1.00">
        <route edges="-380448518 380448518 380448513 30314395 880941791 437351833 30314386#9 30314386#10 30314386#11 30314386#12 727298390#0 727298390#1 727298390#2 727298390#3 727298390#4 727298390#5 727298390#6 727298390#7 727298390#8 727298390#9 154248166 -154248136#6 -154248136#5 -154248136#4 -154248136#3 154248103#0 154248103#1 154248103#2 154248103#3 154248103#4 154248103#5 154248103#6 154248103#7 -696830482#8 -696830482#7 -696830482#6 -696830482#5 -696830482#4 154532747#5 -154532726#4"/>
    </vehicle>
    <vehicle id="2" depart="2.00">
        <route edges="169411964 -154248155#3 -154248155#2 -154248155#1 -154248120#5 -154248120#4 -154248120#3 -154248120#2 -154248117#6 -154248117#5 -154248117#4 -154248117#3 -154248117#2 -154248117#1 -154248117#0 154248119#0 154248119#1 154248119#2 154248119#3 154248119#4 154248175#0"/>
    </vehicle>
    <vehicle id="3" depart="3.00">
        <route edges="71802818 740723069#5 740723069#6 740723069#7 71802815#0 71802815#1 71802815#2 71802815#3 71802815#4 71802815#5 71802815#6 71802815#7 71802815#8 71802815#9 71802815#10 71802815#11 71802815#12 428817026#6 428817026#7 428817026#0 140226525#0 140226525#1 140226525#2 140226525#3 140226525#4 140226525#5 140226525#6 140226525#7 140226525#8 140226525#9 140226525#10 140226525#11 153793547#0 153793547#1 -153793543#10 -153793543#9"/>
    </vehicle>
    <vehicle id="4" depart="4.00">
        <route edges="-71812090 71812090 -71812040#6 -71812040#5 -71812040#4 -71812040#3 -71812040#2 -71812040#1 -71812040#0 71812036 30314353#2 30314353#3 30314353#4 30314353#5 30314353#6 30314353#7 30314353#8 30314353#9 30314353#10 30314353#11 1395474460 30314386#0 30314386#1 30314386#2 30314386#3 30314386#4 30314386#5 30314386#6 30314386#7 30314386#8 30314386#9 30314386#10 30314386#11 30314386#12 727298390#0 727298390#1 727298390#2 727298390#3 727298390#4 727298390#5 727298390#6 727298390#7 727298390#8 727298390#9 154248166 -154248136#6 -154248136#5 -154248136#4 -379383398#4 457935600#0 457935600#1 457935600#2 457935600#3 457935600#4 457935600#5 457935600#6 1233443471#0 1233443471#1 -696830479 -1228250344#0 154532715#4 -1233443471#2"/>
    </vehicle>
    <vehicle id="5" depart="5.00">
        <route edges="-154532718#2 -154532718#1 -154532718#0 696820790#2 154532748#3 521680065#1 521680065#2 -32906407#21 -32906407#20 -32906407#19 -32906407#18 -32906407#17 -32906407#16 -32906407#15 -32906407#14 -32906407#13 -32906407#12 -32906407#11 -32906407#10 -32906407#9 -32906407#8 -32906407#7 -385887979#2 1233513820#0"/>
    </vehicle>
    <vehicle id="6" depart="6.00">
        <route edges="-1233441434#6 -1233441434#5 -1233441434#4 -1233441434#3 -1233441434#2 -154248152#2 -154248152#1 -154248152#0 696817312#0 696817312#1 696817312#2 -153641912#22 -153641912#21 -153641912#20 -153641912#19 -153641912#18 -153641912#17 -153641912#16 -153641912#15 -153641912#14 -153641912#13 -153641912#12 -153641912#11 -153641912#10 -153641912#9 -154248147#8 -154248147#7 -154248147#6 -154248147#5 154248153#2 154248153#3 154248153#4 -154248183#1"/>
    </vehicle>
    <vehicle id="7" depart="7.00">
        <route edges="154248139#12 -154248139#12 -154248139#11 -154248139#10 -154248139#9 154248155#0 154248155#1 -169411926#8 -169411926#7 -169411926#6 -169411926#5 -169411926#4 -169411926#3 -169411926#2 -169411926#1 385833326#4 385833326#5 153793546#3 153793546#4 153793546#5 140098862 202194429#0 202194429#1 202194429#2 422860509 427890465 714605683#7 714605683#8 714605683#0 714605683#1 714605683#2 714605683#3 727288163#0 727288163#1 -140226525#24 -140226525#23 -140226525#22 -140226525#21 -140226525#20 -140226525#19 -140226525#18 -140226525#17 -140226525#16 -140226525#15 -140226525#14 -140226525#13 -140226525#12 -140226525#11 -140226525#10 -140226525#9 -140226525#8 -140226525#7 -140226525#6 -140226525#5 -140226525#4 -140226525#3 -140226525#2 -140226525#1 -140226525#0 428817026#1 428817026#2 428817026#3 71786138#0 71786138#1 71786138#2 71786138#3 71786138#4 71786138#5 71786138#6 71786138#7 71786138#8 71786138#9 1180393602 450103153#3 1180393605#0 1180393605#1 151330270#2 151330270#3 151330270#4"/>
    </vehicle>
    <vehicle id="8" depart="8.00">
        <route edges="-154532720#1 -154532720#0 154248198#3 154248198#4 154248198#5 154248198#6 -696819547#1 -696819547#0 -154532738#1 -154532738#0 -32906407#33 -32906407#32 -32906407#31 -32906407#30 -32906407#29 -32906407#28 -32906407#27 -32906407#26 -32906407#25 -154248107#4 -154248107#3 -385887990#4 -385887990#3 -385887990#2 -385887990#1 -385887990#0 696817312#0 696817312#1 696817312#2 385833326#0 385833326#1 385833326#2 385833326#3 385833326#4 385833326#5 153793546#3 153793546#4 153793546#5 140098862 202194429#0 202194429#1 202194429#2 422860509 427890465 714605683#7 714605683#8 714605683#0 714605683#1 714605683#2 714605683#3 727288163#0 727288163#1 -140226525#24 -140226525#23 -140226525#22 -140226525#21 -140226525#20 -140226525#19 -140226525#18 -140226525#17 -140226525#16 -140226525#15 -140226525#14 -140226525#13 -140226525#12 153793547#0 153793547#1 153793547#2 153793547#3 153793547#4 -154243710#1 154243710#1"/>
    </vehicle>
    <vehicle id="9" depart="9.00">
        <route edges="457939264#2 457939264#3 457939264#4 457939264#5 1233441440#0 1233441440#1 -1233513824#2 -1233513824#1 -1233513824#0 32906407#1 32906407#2 32906407#3 32906407#4 32906407#5 32906407#6 32906407#7 32906407#8 32906407#9 32906407#10 153641998 -153641912#31 -153641912#30 -153641912#29 -153641912#28 -153641912#27 -153641912#26 -153641912#25 -153641912#24 -153641912#23 -153641912#22 -153641912#21 -153641912#20 -153641912#19 -153641912#18 -153641912#17 -153641912#16 -153641912#15 -153641912#14 -153641912#13 -153641912#12 -153641912#11 -153641912#10 -153641912#9 -153641912#8 -153641912#7 -153641912#6 -153641912#5 -153641912#4 -153641912#3 -153641912#2 -153641912#1 -153641912#0 1227311336#0 30314463#10 30314463#11 385433952#3 385433952#4 385433959 385433950 385433955 385433951#1 385433951#2 385433956 385433949#0 385433949#1 385433949#2 385433949#3 385433949#4 1040183133 380448518 380448513 71759201 71759200#1 71759200#2 71759200#3 71759200#4 71759196#2 379387057#0 379387057#1 379387057#2 379387057#3 379387057#4 379387057#5 379387057#6 71137578#3 71137578#4 71137578#5 71137552#0 71137552#1 71137552#2 1104587786#0 1104587786#1 -1104587776#1 -1104587784#1 -1104587784#0 -1104587793#1"/>
    </vehicle>
    <vehicle id="10" depart="10.00">
        <route edges="45051146#0 45051146#1 422860507 422860506#0 422860506#1 153793538#0 153793538#1 153793538#2 153793558 153793539#0 140226505 727298390#0 727298390#1 727298390#2 727298390#3 727298390#4 727298390#5 727298390#6 727298390#7 -1233440745#8 673236331 1233441438#7 1233441438#8 154248204#9"/>
    </vehicle>
    <vehicle id="11" depart="11.00">
        <route edges="-696830479 1228250344#1 1228250344#2 -154532738#8 -696830480#1 -696830480#0 -154532747#4 155074059 379383438#1 379383438#2 379383438#3 154248103#12 154248103#13 154248103#14 154248103#15 154248103#16 154248103#17 154248103#18 154248103#19 32906407#24 -154248107#4 -154248107#3 -385887990#4 -385887990#3 -385887990#2 -385887990#1 -385887990#0 696817312#0 696817312#1 696817312#2 -153641912#22 -153641912#21 -153641912#20 -153641912#19 -153641912#18 -153641912#17 -153641912#16 -153641912#15 -153641912#14 -153641912#13 -153641912#12 -153641912#11 -153641912#10 -154248119#14 -154248119#13"/>
    </vehicle>
    <vehicle id="12" depart="12.00">
        <route edges="727288160#10 727288160#11 727288160#12 -1316624301 30314463#3 30314463#4 30314463#5 30314463#6 30314463#7 30314463#8 1226965435#1 153641912#0 153641912#1 153641912#2 153641912#3 153641912#4 153641912#5 153641912#6 153641912#7 153641912#8 153641912#9 153641912#10 153641912#11 153641912#12 153641912#13 153641912#14 153641912#15 153641912#16 153641912#17 153641912#18 153641912#19 153641912#20 153641912#21 153641912#22 -696817312#2"/>
    </vehicle>
    <vehicle id="13" depart="13.00">
        <route edges="-153793554#3 -153793554#2 -153793554#1 -153793554#0 -71809595#8 -153793565#4 -153793565#3 -153793565#2"/>
    </vehicle>
    <vehicle id="14" depart="14.00">
        <route edges="696843546 -696843546 -696843550#2 -696843550#1 -696843550#0 -32906407#29 -32906407#28 -32906407#27 -32906407#26 -32906407#25 -154248107#4 -154248107#3 -385887990#4 -385887990#3 -385887990#2 -385887990#1 -385887990#0 696817312#0 696817312#1 696817312#2 385833326#0 385833326#1 385833326#2 385833326#3 385833326#4 385833326#5 153793546#3 153793546#4 153793546#5 140098862 202194429#0 202194429#1 202194429#2 422860509 427890465 714605683#7 714605683#8 714605683#0 714605683#1 714605683#2 714605683#3 727288163#0 727288163#1 -140226525#24 -140226525#23 -140226525#22 -140226525#21 -154243799#5 -154243799#4 -154243799#3 -154243763#5 154243763#5"/>
    </vehicle>
    <vehicle id="15" depart="15.00">
        <route edges="457935598#1 -457935596#0 457935595#1 154248103#7 154248103#8 154248103#9 154248103#10 154248103#11 154248103#12 154248103#13 154248103#14 154248103#15 154248103#16 154248103#17 154248103#18 154248103#19 32906407#24 -154248107#4 -154248107#3 -385887990#4 -385887990#3 -385887990#2 -385887990#1 -385887990#0 696817312#0 696817312#1 696817312#2 -153641912#22 -153641912#21 -153641912#20 -153641912#19 -153641912#18 -153641912#17 -153641912#16 -153641912#15 -153641912#14 -153641912#13 -153641912#12 -153641912#11 -153641912#10 -153641912#9 -153641912#8 -153641912#7 -153641912#6 -153641912#5 -153641912#4 -153641912#3 -153641912#2 -153641912#1 -153641912#0 1227311336#0 30314463#10 30314463#11 385433952#3 385433952#4 385433959 385433950 385433955 385433951#1 385433951#2 385433956 385433949#0 385433949#1 654841656#0 654841656#1 -418296100#3 -418296100#2 654841659#0 654841659#1 654841658#0 654841657#1 154642677#1"/>
    </vehicle>
    <vehicle id="16" depart="16.00">
        <route edges="151329879#6 151329879#7 151329879#8 151329879#9 151329879#10 151329879#11 -71812040#3 -71812040#2 -71812040#1 -71812040#0 71812036 30314353#2 30314353#3 30314353#4 30314353#5 30314353#6 30314353#7 30314353#8 30314353#9 71137610#0 71137610#1 71137610#2 71137544#0 71137544#1 71137544#2 71137544#3 71137544#4 71137544#5 71137544#6 71137544#7 71137544#8 71137544#9 71137578#5 71137578#6 71137578#7 71137548#0 -1421667390 784103773#0"/>
    </vehicle>
    <vehicle id="17" depart="17.00">
        <route edges="-71802838#8 -71808972#1 71802830#6 71802830#7 71802809#7 71802809#8 71802809#9 71802809#10 71802809#11 71802809#12 71802809#13 71802809#14 71802809#15 428817026#3 428817026#4 428817026#5 428817026#6 428817026#7 428817026#0 140226525#0 140226525#1 140226525#2 140226525#3 140226525#4 140226525#5 140226525#6 140226525#7 140226525#8 140226525#9 140226525#10 140226525#11 140226525#12 140226525#13 140226525#14 140226525#15 140226525#16 140226525#17 140226525#18 140226525#19 140226525#20 140226525#21 140226525#22 140226525#23 140226525#24 740723071#0 427957750 714605685#1 422860506#1 153793538#0 153793538#1 153793538#2 153793558 153793539#0 140226505 727298390#0 727298390#1 727298390#2 727298390#3 727298390#4 727298393 32906407#0 32906407#1 32906407#2 32906407#3 32906407#4 32906407#5 32906407#6 32906407#7 32906407#8 32906407#9 32906407#10 153641998 -153641912#31 -153641912#30 -153641912#29 -153641912#28 153641912#28 153641912#29"/>
    </vehicle>
    <vehicle id="18" depart="18.00">
        <route edges="673236407#1 -154532754#1 -154532754#0 154248103#15 154248103#16 154248103#17 154248103#18 154248103#19 32906407#24 -154248107#4 -154248107#3 -385887990#4 -385887990#3 -385887990#2 -385887990#1 -385887990#0 696817312#0 696817312#1 696817312#2 385833326#0 385833326#1 385833326#2 385833326#3 385833326#4 385833326#5 153793546#3 153793546#4 153793546#5 140098862 202194429#0 202194429#1 202194429#2 422860509 427890465 714605683#7 714605683#8 714605683#0 714605683#1 714605683#2 714605683#3 727288163#0 727288163#1 -140226525#24 -140226525#23 -140226525#22 -140226525#21 -140226525#20 -140226525#19 -140226525#18 -140226525#17 -140226525#16 -140226525#15 -140226525#14 -140226525#13 -140226525#12 153793547#0 153793547#1 153793547#2 153793547#3 153793547#4 153793547#5 153793547#6 153793548#3 154243814#1"/>
    </vehicle>
    <vehicle id="19" depart="19.00">
        <route edges="714623934#1 -154248190#1 -154248190#0 153641912#5 153641912#6 153641912#7 153641912#8 153641912#9 153641912#10 153641912#11 153641912#12 153641912#13 153641912#14 153641912#15 153641912#16 153641912#17 153641912#18 153641912#19 153641912#20 153641912#21 153641912#22 385833326#0 385833326#1 385833326#2 385833326#3 385833326#4 385833326#5 153793546#3 153793546#4 153793546#5 140098862 202194429#0 202194429#1 202194429#2 422860509 427890465 714605683#7 714605683#8 714605683#0 714605683#1 714605683#2 714605683#3 727288163#0 727288163#1 -140226525#24 -140226525#23 -140226525#22 -140226525#21 -140226525#20 -140226525#19 -153793568#7 -153793568#6 -153793568#5 -153793568#4 -153793568#3 -153793568#2 -153793568#1 -153793568#0 153793568#0"/>
    </vehicle>
    <vehicle id="20" depart="20.00">
        <route edges="154532728#2 -154532728#2 -154532728#1 -154532728#0 -1233440742#1 -1233440742#0 32906407#23 32906407#24 -154248107#4 -154248107#3 -385887990#4 -385887990#3 -385887990#2 -385887990#1 -385887990#0 696817312#0 696817312#1 696817312#2 385833326#0 385833326#1 385833326#2 385833326#3 385833326#4 385833326#5 153793546#3 153793546#4 153793546#5 140098862 202194429#0 202194429#1 202194429#2 422860509 427890465 714605683#7 714605683#8 714605683#0 714605683#1 714605683#2 714605683#3 727288163#0 727288163#1 -140226525#24 -140226525#23 -140226525#22 -140226525#21 -140226525#20 -140226525#19 -140226525#18 -140226525#17 -140226525#16 -140226525#15 -140226525#14 -140226525#13 -140226525#12 -140226525#11 -140226525#10 -140226525#9 -140226525#8 -140226525#7 -140226525#6 -140226525#5 -140226525#4 -140226525#3 -140226525#2 -140226525#1 -140226525#0 428817026#1 71802801#0 71802801#1 71802801#2 -127073090#5 -127073090#4 127073137#1 127073076#1 -127073094#1"/>
    </vehicle>
    <vehicle id="21" depart="21.00">
        <route edges="-154532734#4 -154532741#2 -1233443475#0 -154532736#9 -154532736#8 -154532736#7 -154532736#6 -154532736#5 -696843550#3 -696843550#2 -696843550#1 -696843550#0 -32906407#29 -32906407#28 -32906407#27 -32906407#26 -32906407#25 -154248107#4 -154248107#3 -385887990#4 -385887990#3 -385887990#2 -385887990#1 -385887990#0 696817312#0 696817312#1 696817312#2 385833326#0 385833326#1 -154248127#12 -154248127#11 -154248127#10 -154248127#9 -154248127#8 -154248127#7 -154248127#6 -154248127#5 -154248127#4 635015856#6 635015856#7 -385875414#1 -385875414#0"/>
    </vehicle>
    <vehicle id="22" depart="22.00">
        <route edges="-153793521#9 153793521#9 153793521#10 71802815#7 71802815#8 71802815#9 71802815#10 71802815#11 71802815#12 428817026#6 428817026#7 428817026#0 140226525#0 140226525#1 140226525#2 140226525#3 140226525#4 140226525#5 140226525#6 140226525#7 140226525#8 140226525#9 140226525#10 140226525#11 140226525#12 140226525#13 140226525#14 140226525#15 140226525#16 140226525#17 140226525#18 140226525#19 140226525#20 140226525#21 140226525#22 140226525#23 140226525#24 740723071#0 427957750 714605685#1 422860506#1 153793538#0 153793538#1 153793538#2 153793558 153793539#0 140226505 727298390#0 727298390#1 727298390#2 727298390#3 727298390#4 727298390#5 727298390#6 727298390#7 727298390#8 727298390#9 154248166 -154248136#6 -154248136#5 -154248136#4 -154248136#3 154248103#0 154248103#1 154248103#2 154248103#3 154248103#4 154248103#5 154248103#6 154248103#7 -696830482#8 -696830482#7 -696830482#6 -696830482#5 -696830482#4 154532747#5 154532747#6 -155074058#0 -154532738#9"/>
    </vehicle>
    <vehicle id="23" depart="23.00">
        <route edges="-153793570#1 -153793570#0 -153793554#1 -153793554#0 -153793547#7 -153793547#6 -153793547#5 -153793547#4 -153793547#3 -153793547#2 -153793547#1 -153793547#0 140226525#12 140226525#13 140226525#14 140226525#15 140226525#16 140226525#17 140226525#18 140226525#19 140226525#20 140226525#21 140226525#22 140226525#23 140226525#24 740723071#0 427957750 714605685#1 422860506#1 153793538#0 153793538#1 153793538#2 153793558 153793539#0 140226505 727298390#0 727298390#1 727298390#2 727298390#3 727298390#4 727298393 32906407#0 32906407#1 154248106#0 154248106#1 154248106#2 154248106#3 154248106#4 154248106#5 154248106#6 154248143#4 -154248196#5 -154248196#4 -154248196#3 -154248196#2 -154248196#1 -154248196#0 -385833331#4"/>
    </vehicle>
    <vehicle id="24" depart="24.00">
        <route edges="154248119#8 -154248119#8 -154248119#7 -154248119#6 -154248119#5 -154248119#4 -154248119#3 -154248119#2 -154248119#1 -154248119#0 385833326#3 385833326#4 385833326#5 153793546#3 153793546#4 153793546#5 140098862 202194429#0 202194429#1 202194429#2 422860509 427890465 714605683#7 714605683#8 714605683#0 714605683#1 714605683#2 714605683#3 727288163#0 727288163#1 -140226525#24 -140226525#23 -140226525#22 -140226525#21 -140226525#20 -140226525#19 -140226525#18 -140226525#17 -140226525#16 -140226525#15 -140226525#14 -140226525#13 -140226525#12 -140226525#11 -140226525#10 -140226525#9 -140226525#8 -140226525#7 -140226525#6 -140226525#5 -140226525#4 -140226525#3 -140226525#2 -140226525#1 -140226525#0 428817026#1 428817026#2 428817026#3 71786138#0 71786138#1 71786138#2 71786138#3 71786138#4 71786138#5 71786138#6 71786138#7 71786138#8 71786138#9 71786138#10 71784185#0 71784185#1 71784185#2 675701522#1 675701522#2 675701522#3 71798304 -71798324#5"/>
    </vehicle>
    <vehicle id="25" depart="25.00">
        <route edges="-71802825#10 71808972#4 71802792#2 71802792#3 71802792#4 71802809#3 71802809#4 71802809#5 71802809#6 71802809#7 71802809#8 71802809#9 71802809#10 71802809#11 71802809#12 71802809#13 71802809#14 71802809#15 428817026#3 428817026#4 428817026#5 428817026#6 428817026#7 428817026#0 140226525#0 140226525#1 140226525#2 140226525#3 140226525#4 140226525#5 140226525#6 140226525#7 140226525#8 140226525#9 140226525#10 140226525#11 140226525#12 140226525#13 140226525#14 140226525#15 140226525#16 140226525#17 140226525#18 140226525#19 140226525#20 140226525#21 140226525#22 140226525#23 140226525#24 740723071#0 427957750 714605685#1 422860506#1 153793538#0 153793538#1 153793538#2 153793558 153793539#0 140226505 727298390#0 727298390#1 727298390#2 727298390#3 727298390#4 727298393 32906407#0 32906407#1 32906407#2 32906407#3 32906407#4 32906407#5 32906407#6 32906407#7 32906407#8 32906407#9 32906407#10 32906407#11 32906407#12 32906407#13 32906407#14 32906407#15 32906407#16 32906407#17 32906407#18 32906407#19 32906407#20 32906407#21 32906407#22 32906407#23 32906407#24 32906407#25 32906407#26 32906407#27 32906407#28 32906407#29 32906407#30 32906407#31 32906407#32 32906407#33 154532738#0 154532738#1 696819547#0 696819547#1 -154248198#6 -154248198#5 -154248198#4 -154248198#3 -154248198#2 -154248198#1"/>
    </vehicle>
    <vehicle id="26" depart="26.00">
        <route edges="-370403158#0 154248126#2 154248126#3 154248126#4 154248126#5 154248126#6 153641912#5 153641912#6 153641912#7 153641912#8 153641912#9 153641912#10 153641912#11 153641912#12 153641912#13 153641912#14 153641912#15 153641912#16 153641912#17 153641912#18 153641912#19 153641912#20 153641912#21 153641912#22 385833326#0 385833326#1 385833326#2 385833326#3 385833326#4 385833326#5 153793546#3 153793546#4 153793546#5 140098862 202194429#0 202194429#1 202194429#2 422860509 427890465 714605683#7 714605683#8 714605683#0 714605683#1 714605683#2 714605683#3 727288163#0 727288163#1 -140226525#24 -140226525#23 -140226525#22 -140226525#21 -140226525#20 -140226525#19 -140226525#18 -140226525#17 -140226525#16 -140226525#15 -140226525#14 -140226525#13 -140226525#12 -140226525#11 -140226525#10 -140226525#9 -140226525#8 -140226525#7 -140226525#6 -140226525#5 -140226525#4 -140226525#3 -140226525#2 -140226525#1 -140226525#0 428817026#1 428817026#2 428817026#3 428817026#4 71802817#0 -71809607#5 -71809607#4 -71809607#3 -71809607#2 -71809607#1 71809609#1"/>
    </vehicle>
    <vehicle id="27" depart="27.00">
        <route edges="154248138#0 154248138#1 154248138#2 154248138#3 154248138#4 154248138#5 154248138#6 154248138#7 154248138#8 -154248117#1 -154248117#0 385833326#3 385833326#4 385833326#5 153793546#3 153793546#4 153793546#5 140098862 202194429#0 202194429#1 202194429#2 422860509 427890465 714605683#7 714605683#8 714605683#0 714605683#1 714605683#2 714605683#3 727288163#0 727288163#1 -140226525#24 -140226525#23 -140226525#22 -140226525#21 -140226525#20 -140226525#19 -140226525#18 -140226525#17 -140226525#16 -140226525#15 -140226525#14 -140226525#13 -154243729#0 153793543#8 -154243733 -153793561#9 -153793561#8 154243780"/>
    </vehicle>
    <vehicle id="28" depart="28.00">
        <route edges="-154248139#7 -154248139#6 -154248139#5 -154248139#4 -154248139#3 -154248139#2 -154248139#1 -154248117#3 -154248117#2 -154248117#1 -154248117#0 154248119#0 153793571#6 153793571#7 153793571#8 153793571#9 153793571#10 -153641912#21 -153641912#20 -153641912#19 -153641912#18 -153641912#17 -153641912#16 -153641912#15 -153641912#14 -153641912#13 -153641912#12 -153641912#11 -153641912#10 -153641912#9 -153641912#8 -153641912#7 -153641912#6 -153641912#5 -153641912#4 -153641912#3 -153641912#2 -153641912#1 -153641912#0 1227311336#0 30314463#10 30314463#11 385433952#3 385433952#4 385433959 385433950 385433955 385433951#1 385433951#2 385433956 385433949#0 385433949#1 654841656#0 654841656#1 418296100#4 154642670#0 154642670#1 154642670#2 -521950793#2 154642676#2"/>
    </vehicle>
    <vehicle id="29" depart="29.00">
        <route edges="-154248127#8 -154248175#3 -154248175#2 -154248175#1 -154248175#0 -154248119#4 -154248119#3 -154248119#2 -154248119#1 -154248119#0 385833326#3 385833326#4 385833326#5 153793546#3 153793546#4 153793546#5 140098862 202194429#0 202194429#1 202194429#2 422860509 427890465 714605683#7 714605683#8 714605683#0 714605683#1 714605683#2 714605683#3 727288163#0 727288163#1 -140226525#24 -140226525#23 -140226525#22 -140226525#21 -140226525#20 -140226525#19 -140226525#18 -140226525#17 -140226525#16 -140226525#15 -140226525#14 -140226525#13 -140226525#12 -140226525#11 -140226525#10 -140226525#9 -140226525#8 -140226525#7 -140226525#6 -140226525#5 -140226525#4 -140226525#3 -140226525#2 -140226525#1 -140226525#0 428817026#1 71802801#0 71802801#1 71802801#2 71802801#3 -127073101#0 71802809#5 -71802838#11"/>
    </vehicle>
    <vehicle id="30" depart="30.00">
        <route edges="883000231 883000228 -883000230#0 -385433949#3 -385433949#2 -385433949#1 -385433949#0 385433957 385433951#4 385433951#5 385433951#6 385433953 -385433950 727288161 385433952#6 385433952#0 385433952#1 385433952#2 385433952#3 140254568 153793546#1 153793571#0 169411926#0 169411926#1 169411926#2 169411926#3 169411925#1 -696624575 154248120#0 154248120#1 154248120#2 154248120#3 154248120#4"/>
    </vehicle>
    <vehicle id="31" depart="31.00">
        <route edges="153793542#0 233200744#0 -422876196 -422876195#0 -1268557539 -1171459151 71809595#13 153793568#0 153793568#1 153793568#2 153793568#3 153793568#4 153793568#5 153793568#6 153793568#7 140226525#19 140226525#20 140226525#21 140226525#22 140226525#23 140226525#24 740723071#0 427957750 714605685#1 422860506#1 153793538#0 153793538#1 153793538#2 153793558 153793539#0 140226505 727298390#0 727298390#1 727298390#2 727298390#3 727298390#4 727298393 32906407#0 32906407#1 32906407#2 32906407#3 32906407#4 32906407#5 32906407#6 32906407#7 32906407#8 32906407#9 32906407#10 153641998 -153641912#31 -153641912#30 -153641912#29 -153641912#28 -153641912#27 -153641912#26 -153641912#25 -153641912#24 -153641912#23 -153641912#22 -153641912#21 -153641912#20 -153641912#19 -153641912#18 -153641912#17 -153641912#16 -714624666#5 -714624666#4 -714624666#3 154248188#1"/>
    </vehicle>
    <vehicle id="32" depart="32.00">
        <route edges="696830478 -154532718#2 -154532718#1 -154532728#2 -154532728#1 -154532728#0 -1233440742#1 -1233440742#0 32906407#23 32906407#24 32906407#25 32906407#26 32906407#27 32906407#28 32906407#29 32906407#30 32906407#31 32906407#32 32906407#33 32906407#34 -385875303#8 -385875303#7 -385875303#6 -385875303#5 385875303#5"/>
    </vehicle>
    <vehicle id="33" depart="33.00">
        <route edges="-154532736#1 154532731#0 154532731#1 154532747#0 154532747#1 -1233443475#1"/>
    </vehicle>
    <vehicle id="34" depart="34.00">
        <route edges="-635015838#0 -635015840 -379383483 379383398#0 379383398#1 379383398#2 379383398#3 379383398#4 -154248136#3 -154248136#2 -154248136#1 -154248136#0 -154248204#11 -154248204#10 -154248204#9 -154248204#8 -154248204#7 -385875346#2 -385875346#1 -385875346#0 -385875301#3 -385875301#2 -385875301#1 -385875301#0 -32906407#15 -32906407#14 -32906407#13 -32906407#12 -32906407#11 153641998 -153641912#31 -153641912#30 -153641912#29 -153641912#28 -153641912#27 -153641912#26 -153641912#25 -153641912#24 -153641912#23 -153641912#22 -153641912#21 -153641912#20 -153641912#19 -153641912#18 -153641912#17 -153641912#16 -153641912#15 -153641912#14 -153641912#13 -153641912#12 -153641912#11 -153641912#10 -153641912#9 -153641912#8 -153641912#7 -153641912#6 -153641912#5 -153641912#4 -153641912#3 -153641912#2 -370403156#1 -370403156#0"/>
    </vehicle>
    <vehicle id="35" depart="35.00">
        <route edges="-154248200#1 -154248121#0 154248164#1 154248164#2 154248164#3 154248142#7 154248142#8 154248142#9 154248142#10 153641912#12 153641912#13 153641912#14 153641912#15 153641912#16 153641912#17 153641912#18 153641912#19 153641912#20 153641912#21 153641912#22 385833326#0 385833326#1 385833326#2 385833326#3 385833326#4 385833326#5 153793546#3 153793546#4 153793555#0 153793555#1 153793549 153793525#0 140226515 740723069#0 740723069#1 740723069#2 740723069#3 740723069#4 740723069#5 740723069#6 740723069#7 71802815#0 71802815#1 -71812098#5 -71812098#4 -71812098#3 -71812098#2 -71812105#3 71812040#12"/>
    </vehicle>
    <vehicle id="36" depart="36.00">
        <route edges="71798312#6 71798312#7 71798322#2 71798322#3 71802833#3 71802833#4 71784192#5 -71786138#10 -71786138#9 -71786138#8 -71786138#7 -71786138#6 -71786138#5 -71786138#4 -71786138#3 -71786138#2 -71786138#1 -71786138#0 428817026#4 428817026#5 428817026#6 428817026#7 428817026#0 140226525#0 154243748#4 154243748#5 -543597718#0"/>
    </vehicle>
    <vehicle id="37" depart="37.00">
        <route edges="154248144#4 154248144#5 153641912#17 153641912#18 153641912#19 153641912#20 153641912#21 153641912#22 385833326#0 385833326#1 385833326#2 385833326#3 385833326#4 385833326#5 153793546#3 153793546#4 153793546#5 140098862 202194429#0 202194429#1 202194429#2 422860509 427890465 714605683#7 714605683#8 714605683#0 714605683#1 714605683#2 714605683#3 727288163#0 727288163#1 -140226525#24 -140226525#23 -140226525#22 -140226525#21 -140226525#20 -140226525#19 -140226525#18 -140226525#17 -140226525#16 -140226525#15 -140226525#14 -140226525#13 -140226525#12 -140226525#11 -140226525#10 -140226525#9 -140226525#8 -140226525#7 -140226525#6 -140226525#5 -140226525#4 -140226525#3 -140226525#2 -140226525#1 -140226525#0 428817026#1 71802801#0 71802801#1 71802801#2 71802801#3 71802801#4 -71802792#5 -71802792#4 -71808948#3"/>
    </vehicle>
    <vehicle id="38" depart="38.00">
        <route edges="71808929#1 71808854#4 -71786138#0 428817026#4 428817026#5 428817026#6 428817026#7 428817026#0 140226525#0 140226525#1 140226525#2 140226525#3 140226525#4 140226525#5 140226525#6 140226525#7 140226525#8 140226525#9 140226525#10 140226525#11 140226525#12 140226525#13 140226525#14 140226525#15 140226525#16 140226525#17 140226525#18 140226525#19 140226525#20 140226525#21 140226525#22 140226525#23 140226525#24 740723071#0 427957750 714605685#1 422860506#1 422860506#2 140098861 211043509#0 211043509#1 211043509#2 211043509#3 211043509#4 211043509#5 211043509#6 140254567 385433951#2 385433956 385433949#0 385433949#1 654841656#0 -654841654#1 883000232 -883000234#1"/>
    </vehicle>
    <vehicle id="39" depart="39.00">